<?xml version="1.0" encoding="UTF-8"?>
<routes xmlns:xsi="http://www.w3.org/2001/XMLSchema-instance" xsi:noNamespaceSchemaLocation="http://sumo.dlr.de/xsd/routes_file.xsd"><vType id="ped_pedestrian" vClass="pedestrian"/>
    <person id="ped0" type="ped_pedestrian" depart="0.3">
        <walk busStop="152_bus_M15-SBS:1"/>
        <ride intended="136_subway_C:0" depart="0.6"/>
    </person>
    
    <person id="ped3" type="ped_pedestrian" depart="0.12">
        <walk busStop="152_bus_M15-SBS:1"/>
        <ride intended="39_subway_N:1" depart="0.17"/>
    </person>
    
    <person id="ped9" type="ped_pedestrian" depart="0.20">
        <walk busStop="122_bus_M15:0"/>
        <ride intended="41_subway_Q:0" depart="0.28"/>
    </person>
    
    <person id="ped10" type="ped_pedestrian" depart="0.21">
        <walk busStop="127_bus_M11:1"/>
        <ride intended="29_subway_A:1" depart="0.28"/>
    </person>
    
    <person id="ped11" type="ped_pedestrian" depart="0.25">
        <walk busStop="86_bus_Q32:0"/>
        <ride intended="154_subway_1:1" depart="0.29"/>
    </person>
    
    <person id="ped12" type="ped_pedestrian" depart="0.27">
        <walk busStop="127_bus_M11:1"/>
        <ride intended="197_subway_B:3" depart="0.33"/>
    </person>
    
    <person id="ped17" type="ped_pedestrian" depart="0.30">
        <walk busStop="86_bus_Q32:0"/>
        <ride intended="167_subway_7:1" depart="0.36"/>
    </person>
    
    <person id="ped18" type="ped_pedestrian" depart="0.34">
        <walk busStop="126_bus_M5:1"/>
        <ride intended="40_subway_N:2" depart="0.40"/>
    </person>
    
    <person id="ped19" type="ped_pedestrian" depart="0.36">
        <walk busStop="117_bus_M14A_SBS:1"/>
        <ride intended="179_subway_L:1" depart="0.44"/>
    </person>
    
    <person id="ped20" type="ped_pedestrian" depart="0.48">
        <walk busStop="117_bus_M14A_SBS:1"/>
        <ride intended="197_subway_B:3" depart="0.54"/>
    </person>
    
    <person id="ped21" type="ped_pedestrian" depart="0.52">
        <walk busStop="127_bus_M11:1"/>
        <ride intended="132_subway_M:0" depart="1.2"/>
    </person>
    
    <person id="ped25" type="ped_pedestrian" depart="0.55">
        <walk busStop="96_bus_M50:0"/>
        <ride intended="147_subway_2:1" depart="1.7"/>
    </person>
    
    <person id="ped26" type="ped_pedestrian" depart="0.58">
        <walk busStop="114_bus_M50:1"/>
        <ride intended="42_subway_Q:1" depart="1.8"/>
    </person>
    
    <person id="ped27" type="ped_pedestrian" depart="1.1">
        <walk busStop="86_bus_Q32:0"/>
        <ride intended="135_subway_F:2" depart="1.7"/>
    </person>
    
    <person id="ped31" type="ped_pedestrian" depart="1.19">
        <walk busStop="117_bus_M14A_SBS:1"/>
        <ride intended="111_subway_JSQ–33:0" depart="1.31"/>
    </person>
    
    <person id="ped35" type="ped_pedestrian" depart="1.33">
        <walk busStop="126_bus_M5:1"/>
        <ride intended="199_subway_4:5" depart="1.36"/>
    </person>
    
    <person id="ped36" type="ped_pedestrian" depart="1.41">
        <walk busStop="86_bus_Q32:0"/>
        <ride intended="172_subway_M:1" depart="1.47"/>
    </person>
    
    <person id="ped37" type="ped_pedestrian" depart="1.43">
        <walk busStop="117_bus_M14A_SBS:1"/>
        <ride intended="196_subway_B:2" depart="1.55"/>
    </person>
    
    <person id="ped43" type="ped_pedestrian" depart="2.11">
        <walk busStop="96_bus_M50:0"/>
        <ride intended="111_subway_JSQ–33:0" depart="2.15"/>
    </person>
    
    <person id="ped44" type="ped_pedestrian" depart="2.25">
        <walk busStop="89_bus_M42:0"/>
        <ride intended="165_subway_6:1" depart="2.32"/>
    </person>
    
    <person id="ped46" type="ped_pedestrian" depart="2.48">
        <walk busStop="122_bus_M15:0"/>
        <ride intended="160_subway_5:6" depart="2.55"/>
    </person>
    
    <person id="ped47" type="ped_pedestrian" depart="2.53">
        <walk busStop="116_bus_M42:1"/>
        <ride intended="21_subway_F:1" depart="3.2"/>
    </person>
    
    <person id="ped50" type="ped_pedestrian" depart="3.3">
        <walk busStop="89_bus_M42:0"/>
        <ride intended="188_subway_A:7" depart="3.10"/>
    </person>
    
    <person id="ped51" type="ped_pedestrian" depart="3.5">
        <walk busStop="127_bus_M11:1"/>
        <ride intended="23_subway_5:1" depart="3.11"/>
    </person>
    
    <person id="ped52" type="ped_pedestrian" depart="3.14">
        <walk busStop="97_bus_M66:0"/>
        <ride intended="23_subway_5:1" depart="3.22"/>
    </person>
    
    <person id="ped54" type="ped_pedestrian" depart="3.28">
        <walk busStop="0_bus_2602:0"/>
        <ride intended="188_subway_A:7" depart="3.36"/>
    </person>
    
    <person id="ped55" type="ped_pedestrian" depart="3.28">
        <walk busStop="117_bus_M14A_SBS:1"/>
        <ride intended="173_subway_R:0" depart="3.35"/>
    </person>
    
    <person id="ped57" type="ped_pedestrian" depart="3.36">
        <walk busStop="86_bus_Q32:0"/>
        <ride intended="184_subway_A:3" depart="3.45"/>
    </person>
    
    <person id="ped59" type="ped_pedestrian" depart="3.43">
        <walk busStop="116_bus_M42:1"/>
        <ride intended="198_subway_4:4" depart="3.45"/>
    </person>
    
    <person id="ped64" type="ped_pedestrian" depart="4.6">
        <walk busStop="114_bus_M50:1"/>
        <ride intended="147_subway_2:1" depart="4.16"/>
    </person>
    
    <person id="ped67" type="ped_pedestrian" depart="4.16">
        <walk busStop="86_bus_Q32:0"/>
        <ride intended="20_subway_F:0" depart="4.20"/>
    </person>
    
    <person id="ped69" type="ped_pedestrian" depart="4.21">
        <walk busStop="96_bus_M50:0"/>
        <ride intended="35_subway_E:1" depart="4.31"/>
    </person>
    
    <person id="ped72" type="ped_pedestrian" depart="4.30">
        <walk busStop="96_bus_M50:0"/>
        <ride intended="176_subway_Q:3" depart="4.38"/>
    </person>
    
    <person id="ped78" type="ped_pedestrian" depart="5.10">
        <walk busStop="126_bus_M5:1"/>
        <ride intended="199_subway_4:5" depart="5.19"/>
    </person>
    
    <person id="ped88" type="ped_pedestrian" depart="5.38">
        <walk busStop="126_bus_M5:1"/>
        <ride intended="190_subway_F:3" depart="5.45"/>
    </person>
    
    <person id="ped89" type="ped_pedestrian" depart="5.38">
        <walk busStop="126_bus_M5:1"/>
        <ride intended="172_subway_M:1" depart="5.49"/>
    </person>
    
    <person id="ped90" type="ped_pedestrian" depart="5.42">
        <walk busStop="127_bus_M11:1"/>
        <ride intended="20_subway_F:0" depart="5.45"/>
    </person>
    
    <person id="ped92" type="ped_pedestrian" depart="5.50">
        <walk busStop="86_bus_Q32:0"/>
        <ride intended="182_subway_7:2" depart="6.2"/>
    </person>
    
    <person id="ped94" type="ped_pedestrian" depart="5.52">
        <walk busStop="90_bus_M23_SBS:0"/>
        <ride intended="35_subway_E:1" depart="6.0"/>
    </person>
    
    <person id="ped95" type="ped_pedestrian" depart="5.52">
        <walk busStop="96_bus_M50:0"/>
        <ride intended="164_subway_6:0" depart="5.57"/>
    </person>
    
    <person id="ped96" type="ped_pedestrian" depart="5.55">
        <walk busStop="151_bus_M15-SBS:0"/>
        <ride intended="45_train_Hudson:0" depart="5.57"/>
    </person>
    
    <person id="ped97" type="ped_pedestrian" depart="5.58">
        <walk busStop="0_bus_2602:0"/>
        <ride intended="37_subway_E:3" depart="6.0"/>
    </person>
    
    <person id="ped100" type="ped_pedestrian" depart="6.4">
        <walk busStop="122_bus_M15:0"/>
        <ride intended="20_subway_F:0" depart="6.15"/>
    </person>
    
    <person id="ped102" type="ped_pedestrian" depart="6.8">
        <walk busStop="142_bus_M12:1"/>
        <ride intended="188_subway_A:7" depart="6.11"/>
    </person>
    
    <person id="ped105" type="ped_pedestrian" depart="6.10">
        <walk busStop="117_bus_M14A_SBS:1"/>
        <ride intended="130_subway_1:0" depart="6.15"/>
    </person>
    
    <person id="ped109" type="ped_pedestrian" depart="6.14">
        <walk busStop="96_bus_M50:0"/>
        <ride intended="155_subway_2:2" depart="6.24"/>
    </person>
    
    <person id="ped111" type="ped_pedestrian" depart="6.15">
        <walk busStop="126_bus_M5:1"/>
        <ride intended="178_subway_N:5" depart="6.20"/>
    </person>
    
    <person id="ped116" type="ped_pedestrian" depart="6.29">
        <walk busStop="0_bus_2602:0"/>
        <ride intended="31_subway_D:1" depart="6.33"/>
    </person>
    
    <person id="ped122" type="ped_pedestrian" depart="6.35">
        <walk busStop="121_bus_M104:0"/>
        <ride intended="130_subway_1:0" depart="6.40"/>
    </person>
    
    <person id="ped129" type="ped_pedestrian" depart="6.43">
        <walk busStop="151_bus_M15-SBS:0"/>
        <ride intended="174_subway_R:1" depart="6.53"/>
    </person>
    
    <person id="ped133" type="ped_pedestrian" depart="6.46">
        <walk busStop="92_bus_M5:0"/>
        <ride intended="73_train_166:0" depart="6.55"/>
    </person>
    
    <person id="ped137" type="ped_pedestrian" depart="6.51">
        <walk busStop="89_bus_M42:0"/>
        <ride intended="26_subway_4:0" depart="6.56"/>
    </person>
    
    <person id="ped141" type="ped_pedestrian" depart="6.55">
        <walk busStop="126_bus_M5:1"/>
        <ride intended="135_subway_F:2" depart="7.4"/>
    </person>
    
    <person id="ped143" type="ped_pedestrian" depart="6.57">
        <walk busStop="153_bus_M15:1"/>
        <ride intended="57_train_157:0" depart="7.5"/>
    </person>
    
    <person id="ped149" type="ped_pedestrian" depart="7.3">
        <walk busStop="122_bus_M15:0"/>
        <ride intended="191_subway_C:1" depart="7.14"/>
    </person>
    
    <person id="ped153" type="ped_pedestrian" depart="7.6">
        <walk busStop="152_bus_M15-SBS:1"/>
        <ride intended="174_subway_R:1" depart="7.12"/>
    </person>
    
    <person id="ped158" type="ped_pedestrian" depart="7.15">
        <walk busStop="119_bus_M34_SBS:1"/>
        <ride intended="41_subway_Q:0" depart="7.32"/>
    </person>
    
    <person id="ped160" type="ped_pedestrian" depart="7.17">
        <walk busStop="128_bus_M7:1"/>
        <ride intended="180_subway_6:2" depart="7.19"/>
    </person>
    
    <person id="ped162" type="ped_pedestrian" depart="7.22">
        <walk busStop="152_bus_M15-SBS:1"/>
        <ride intended="155_subway_2:2" depart="7.24"/>
    </person>
    
    <person id="ped164" type="ped_pedestrian" depart="7.25">
        <walk busStop="126_bus_M5:1"/>
        <ride intended="148_subway_HOB–33:1" depart="7.25"/>
    </person>
    
    <person id="ped166" type="ped_pedestrian" depart="7.30">
        <walk busStop="122_bus_M15:0"/>
        <ride intended="188_subway_A:7" depart="7.32"/>
    </person>
    
    <person id="ped167" type="ped_pedestrian" depart="7.30">
        <walk busStop="114_bus_M50:1"/>
        <ride intended="17_subway_JSQ–33_via_HOB:1" depart="7.37"/>
    </person>
    
    <person id="ped168" type="ped_pedestrian" depart="7.35">
        <walk busStop="127_bus_M11:1"/>
        <ride intended="147_subway_2:1" depart="7.37"/>
    </person>
    
    <person id="ped170" type="ped_pedestrian" depart="7.38">
        <walk busStop="92_bus_M5:0"/>
        <ride intended="164_subway_6:0" depart="7.46"/>
    </person>
    
    <person id="ped172" type="ped_pedestrian" depart="7.39">
        <walk busStop="152_bus_M15-SBS:1"/>
        <ride intended="36_subway_E:2" depart="7.44"/>
    </person>
    
    <person id="ped175" type="ped_pedestrian" depart="7.40">
        <walk busStop="86_bus_Q32:0"/>
        <ride intended="167_subway_7:1" depart="7.44"/>
    </person>
    
    <person id="ped182" type="ped_pedestrian" depart="7.46">
        <walk busStop="117_bus_M14A_SBS:1"/>
        <ride intended="35_subway_E:1" depart="7.45"/>
    </person>
    
    <person id="ped184" type="ped_pedestrian" depart="7.50">
        <walk busStop="121_bus_M104:0"/>
        <ride intended="36_subway_E:2" depart="7.58"/>
    </person>
    
    <person id="ped186" type="ped_pedestrian" depart="7.58">
        <walk busStop="0_bus_2602:0"/>
        <ride intended="23_subway_5:1" depart="8.1"/>
    </person>
    
    <person id="ped192" type="ped_pedestrian" depart="8.5">
        <walk busStop="96_bus_M50:0"/>
        <ride intended="135_subway_F:2" depart="8.16"/>
    </person>
    
    <person id="ped197" type="ped_pedestrian" depart="8.10">
        <walk busStop="117_bus_M14A_SBS:1"/>
        <ride intended="62_train_174:0" depart="8.20"/>
    </person>
    
    <person id="ped201" type="ped_pedestrian" depart="8.13">
        <walk busStop="114_bus_M50:1"/>
        <ride intended="148_subway_HOB–33:1" depart="8.25"/>
    </person>
    
    <person id="ped205" type="ped_pedestrian" depart="8.19">
        <walk busStop="127_bus_M11:1"/>
        <ride intended="176_subway_Q:3" depart="8.23"/>
    </person>
    
    <person id="ped208" type="ped_pedestrian" depart="8.21">
        <walk busStop="114_bus_M50:1"/>
        <ride intended="133_subway_B:0" depart="8.24"/>
    </person>
    
    <person id="ped214" type="ped_pedestrian" depart="8.24">
        <walk busStop="152_bus_M15-SBS:1"/>
        <ride intended="161_subway_5:7" depart="8.36"/>
    </person>
    
    <person id="ped218" type="ped_pedestrian" depart="8.28">
        <walk busStop="86_bus_Q32:0"/>
        <ride intended="181_subway_6:3" depart="8.29"/>
    </person>
    
    <person id="ped223" type="ped_pedestrian" depart="8.38">
        <walk busStop="127_bus_M11:1"/>
        <ride intended="196_subway_B:2" depart="8.47"/>
    </person>
    
    <person id="ped227" type="ped_pedestrian" depart="8.42">
        <walk busStop="86_bus_Q32:0"/>
        <ride intended="52_train_2164:0" depart="8.50"/>
    </person>
    
    <person id="ped229" type="ped_pedestrian" depart="8.45">
        <walk busStop="152_bus_M15-SBS:1"/>
        <ride intended="36_subway_E:2" depart="8.51"/>
    </person>
    
    <person id="ped234" type="ped_pedestrian" depart="8.53">
        <walk busStop="96_bus_M50:0"/>
        <ride intended="42_subway_Q:1" depart="9.0"/>
    </person>
    
    <person id="ped236" type="ped_pedestrian" depart="8.54">
        <walk busStop="152_bus_M15-SBS:1"/>
        <ride intended="165_subway_6:1" depart="8.59"/>
    </person>
    
    <person id="ped237" type="ped_pedestrian" depart="8.54">
        <walk busStop="117_bus_M14A_SBS:1"/>
        <ride intended="178_subway_N:5" depart="9.1"/>
    </person>
    
    <person id="ped241" type="ped_pedestrian" depart="8.59">
        <walk busStop="89_bus_M42:0"/>
        <ride intended="105_train_New_Haven:0" depart="9.3"/>
    </person>
    
    <person id="ped242" type="ped_pedestrian" depart="9.1">
        <walk busStop="122_bus_M15:0"/>
        <ride intended="184_subway_A:3" depart="9.7"/>
    </person>
    
    <person id="ped243" type="ped_pedestrian" depart="9.1">
        <walk busStop="89_bus_M42:0"/>
        <ride intended="186_subway_A:5" depart="9.7"/>
    </person>
    
    <person id="ped246" type="ped_pedestrian" depart="9.8">
        <walk busStop="126_bus_M5:1"/>
        <ride intended="134_subway_D:4" depart="9.12"/>
    </person>
    
    <person id="ped247" type="ped_pedestrian" depart="9.9">
        <walk busStop="117_bus_M14A_SBS:1"/>
        <ride intended="37_subway_E:3" depart="9.14"/>
    </person>
    
    <person id="ped249" type="ped_pedestrian" depart="9.15">
        <walk busStop="0_bus_2602:0"/>
        <ride intended="165_subway_6:1" depart="9.28"/>
    </person>
    
    <person id="ped250" type="ped_pedestrian" depart="9.17">
        <walk busStop="0_bus_2602:0"/>
        <ride intended="17_subway_JSQ–33_via_HOB:1" depart="9.20"/>
    </person>
    
    <person id="ped251" type="ped_pedestrian" depart="9.17">
        <walk busStop="89_bus_M42:0"/>
        <ride intended="28_subway_A:0" depart="9.22"/>
    </person>
    
    <person id="ped256" type="ped_pedestrian" depart="9.21">
        <walk busStop="86_bus_Q32:0"/>
        <ride intended="168_subway_W:0" depart="9.32"/>
    </person>
    
    <person id="ped257" type="ped_pedestrian" depart="9.22">
        <walk busStop="126_bus_M5:1"/>
        <ride intended="198_subway_4:4" depart="9.30"/>
    </person>
    
    <person id="ped258" type="ped_pedestrian" depart="9.23">
        <walk busStop="117_bus_M14A_SBS:1"/>
        <ride intended="198_subway_4:4" depart="9.27"/>
    </person>
    
    <person id="ped259" type="ped_pedestrian" depart="9.23">
        <walk busStop="116_bus_M42:1"/>
        <ride intended="148_subway_HOB–33:1" depart="9.24"/>
    </person>
    
    <person id="ped262" type="ped_pedestrian" depart="9.27">
        <walk busStop="89_bus_M42:0"/>
        <ride intended="25_subway_5:3" depart="9.31"/>
    </person>
    
    <person id="ped269" type="ped_pedestrian" depart="9.39">
        <walk busStop="86_bus_Q32:0"/>
        <ride intended="178_subway_N:5" depart="9.43"/>
    </person>
    
    <person id="ped276" type="ped_pedestrian" depart="9.49">
        <walk busStop="92_bus_M5:0"/>
        <ride intended="27_subway_4:1" depart="9.53"/>
    </person>
    
    <person id="ped278" type="ped_pedestrian" depart="9.55">
        <walk busStop="86_bus_Q32:0"/>
        <ride intended="192_subway_D:5" depart="10.3"/>
    </person>
    
    <person id="ped280" type="ped_pedestrian" depart="9.57">
        <walk busStop="116_bus_M42:1"/>
        <ride intended="33_subway_D:3" depart="10.2"/>
    </person>
    
    <person id="ped281" type="ped_pedestrian" depart="9.57">
        <walk busStop="86_bus_Q32:0"/>
        <ride intended="37_subway_E:3" depart="10.6"/>
    </person>
    
    <person id="ped285" type="ped_pedestrian" depart="10.3">
        <walk busStop="114_bus_M50:1"/>
        <ride intended="32_subway_D:2" depart="10.10"/>
    </person>
    
    <person id="ped290" type="ped_pedestrian" depart="10.8">
        <walk busStop="127_bus_M11:1"/>
        <ride intended="41_subway_Q:0" depart="10.16"/>
    </person>
    
    <person id="ped293" type="ped_pedestrian" depart="10.12">
        <walk busStop="114_bus_M50:1"/>
        <ride intended="155_subway_2:2" depart="10.21"/>
    </person>
    
    <person id="ped295" type="ped_pedestrian" depart="10.16">
        <walk busStop="90_bus_M23_SBS:0"/>
        <ride intended="42_subway_Q:1" depart="10.21"/>
    </person>
    
    <person id="ped296" type="ped_pedestrian" depart="10.19">
        <walk busStop="89_bus_M42:0"/>
        <ride intended="198_subway_4:4" depart="10.25"/>
    </person>
    
    <person id="ped298" type="ped_pedestrian" depart="10.23">
        <walk busStop="86_bus_Q32:0"/>
        <ride intended="189_subway_B:1" depart="10.28"/>
    </person>
    
    <person id="ped305" type="ped_pedestrian" depart="10.31">
        <walk busStop="86_bus_Q32:0"/>
        <ride intended="189_subway_B:1" depart="10.35"/>
    </person>
    
    <person id="ped306" type="ped_pedestrian" depart="10.31">
        <walk busStop="86_bus_Q32:0"/>
        <ride intended="179_subway_L:1" depart="10.36"/>
    </person>
    
    <person id="ped307" type="ped_pedestrian" depart="10.32">
        <walk busStop="86_bus_Q32:0"/>
        <ride intended="180_subway_6:2" depart="10.38"/>
    </person>
    
    <person id="ped308" type="ped_pedestrian" depart="10.32">
        <walk busStop="126_bus_M5:1"/>
        <ride intended="166_subway_7:0" depart="10.38"/>
    </person>
    
    <person id="ped309" type="ped_pedestrian" depart="10.34">
        <walk busStop="86_bus_Q32:0"/>
        <ride intended="199_subway_4:5" depart="10.42"/>
    </person>
    
    <person id="ped310" type="ped_pedestrian" depart="10.38">
        <walk busStop="116_bus_M42:1"/>
        <ride intended="178_subway_N:5" depart="10.49"/>
    </person>
    
    <person id="ped312" type="ped_pedestrian" depart="10.39">
        <walk busStop="89_bus_M42:0"/>
        <ride intended="35_subway_E:1" depart="10.49"/>
    </person>
    
    <person id="ped314" type="ped_pedestrian" depart="10.41">
        <walk busStop="117_bus_M14A_SBS:1"/>
        <ride intended="199_subway_4:5" depart="10.48"/>
    </person>
    
    <person id="ped316" type="ped_pedestrian" depart="10.43">
        <walk busStop="116_bus_M42:1"/>
        <ride intended="130_subway_1:0" depart="10.50"/>
    </person>
    
    <person id="ped317" type="ped_pedestrian" depart="10.44">
        <walk busStop="0_bus_2602:0"/>
        <ride intended="154_subway_1:1" depart="10.53"/>
    </person>
    
    <person id="ped318" type="ped_pedestrian" depart="10.45">
        <walk busStop="89_bus_M42:0"/>
        <ride intended="111_subway_JSQ–33:0" depart="10.53"/>
    </person>
    
    <person id="ped319" type="ped_pedestrian" depart="10.46">
        <walk busStop="114_bus_M50:1"/>
        <ride intended="109_train_Montclair-Boonton:0" depart="10.45"/>
    </person>
    
    <person id="ped320" type="ped_pedestrian" depart="10.47">
        <walk busStop="114_bus_M50:1"/>
        <ride intended="27_subway_4:1" depart="10.55"/>
    </person>
    
    <person id="ped322" type="ped_pedestrian" depart="10.52">
        <walk busStop="86_bus_Q32:0"/>
        <ride intended="159_subway_5:5" depart="10.55"/>
    </person>
    
    <person id="ped325" type="ped_pedestrian" depart="10.55">
        <walk busStop="0_bus_2602:0"/>
        <ride intended="162_subway_S:2" depart="10.55"/>
    </person>
    
    <person id="ped332" type="ped_pedestrian" depart="11.7">
        <walk busStop="97_bus_M66:0"/>
        <ride intended="192_subway_D:5" depart="11.13"/>
    </person>
    
    <person id="ped337" type="ped_pedestrian" depart="11.13">
        <walk busStop="120_bus_M34A_SBS:1"/>
        <ride intended="134_subway_D:4" depart="11.21"/>
    </person>
    
    <person id="ped339" type="ped_pedestrian" depart="11.16">
        <walk busStop="122_bus_M15:0"/>
        <ride intended="192_subway_D:5" depart="11.25"/>
    </person>
    
    <person id="ped340" type="ped_pedestrian" depart="11.17">
        <walk busStop="120_bus_M34A_SBS:1"/>
        <ride intended="105_train_New_Haven:0" depart="11.24"/>
    </person>
    
    <person id="ped341" type="ped_pedestrian" depart="11.17">
        <walk busStop="96_bus_M50:0"/>
        <ride intended="165_subway_6:1" depart="11.21"/>
    </person>
    
    <person id="ped342" type="ped_pedestrian" depart="11.17">
        <walk busStop="86_bus_Q32:0"/>
        <ride intended="155_subway_2:2" depart="11.22"/>
    </person>
    
    <person id="ped343" type="ped_pedestrian" depart="11.19">
        <walk busStop="89_bus_M42:0"/>
        <ride intended="77_train_195:0" depart="11.25"/>
    </person>
    
    <person id="ped346" type="ped_pedestrian" depart="11.22">
        <walk busStop="126_bus_M5:1"/>
        <ride intended="40_subway_N:2" depart="11.27"/>
    </person>
    
    <person id="ped348" type="ped_pedestrian" depart="11.23">
        <walk busStop="86_bus_Q32:0"/>
        <ride intended="183_subway_7:3" depart="11.27"/>
    </person>
    
    <person id="ped349" type="ped_pedestrian" depart="11.23">
        <walk busStop="128_bus_M7:1"/>
        <ride intended="42_subway_Q:1" depart="11.32"/>
    </person>
    
    <person id="ped350" type="ped_pedestrian" depart="11.24">
        <walk busStop="114_bus_M50:1"/>
        <ride intended="164_subway_6:0" depart="11.30"/>
    </person>
    
    <person id="ped354" type="ped_pedestrian" depart="11.26">
        <walk busStop="152_bus_M15-SBS:1"/>
        <ride intended="165_subway_6:1" depart="11.34"/>
    </person>
    
    <person id="ped357" type="ped_pedestrian" depart="11.27">
        <walk busStop="86_bus_Q32:0"/>
        <ride intended="194_train_2158+2248+2250+2252+2254+2256:0" depart="11.37"/>
    </person>
    
    <person id="ped360" type="ped_pedestrian" depart="11.30">
        <walk busStop="86_bus_Q32:0"/>
        <ride intended="30_subway_D:0" depart="11.33"/>
    </person>
    
    <person id="ped364" type="ped_pedestrian" depart="11.36">
        <walk busStop="126_bus_M5:1"/>
        <ride intended="49_train_2167:0" depart="11.43"/>
    </person>
    
    <person id="ped367" type="ped_pedestrian" depart="11.38">
        <walk busStop="86_bus_Q32:0"/>
        <ride intended="181_subway_6:3" depart="11.41"/>
    </person>
    
    <person id="ped371" type="ped_pedestrian" depart="11.42">
        <walk busStop="127_bus_M11:1"/>
        <ride intended="159_subway_5:5" depart="11.48"/>
    </person>
    
    <person id="ped372" type="ped_pedestrian" depart="11.45">
        <walk busStop="114_bus_M50:1"/>
        <ride intended="65_train_171:0" depart="11.57"/>
    </person>
    
    <person id="ped373" type="ped_pedestrian" depart="11.45">
        <walk busStop="126_bus_M5:1"/>
        <ride intended="39_subway_N:1" depart="11.55"/>
    </person>
    
    <person id="ped377" type="ped_pedestrian" depart="11.50">
        <walk busStop="89_bus_M42:0"/>
        <ride intended="169_subway_N:3" depart="11.59"/>
    </person>
    
    <person id="ped378" type="ped_pedestrian" depart="11.52">
        <walk busStop="86_bus_Q32:0"/>
        <ride intended="134_subway_D:4" depart="11.55"/>
    </person>
    
    <person id="ped382" type="ped_pedestrian" depart="11.56">
        <walk busStop="86_bus_Q32:0"/>
        <ride intended="20_subway_F:0" depart="12.3"/>
    </person>
    
    <person id="ped383" type="ped_pedestrian" depart="11.57">
        <walk busStop="86_bus_Q32:0"/>
        <ride intended="21_subway_F:1" depart="12.3"/>
    </person>
    
    <person id="ped384" type="ped_pedestrian" depart="11.57">
        <walk busStop="114_bus_M50:1"/>
        <ride intended="176_subway_Q:3" depart="12.10"/>
    </person>
    
    <person id="ped385" type="ped_pedestrian" depart="11.57">
        <walk busStop="86_bus_Q32:0"/>
        <ride intended="17_subway_JSQ–33_via_HOB:1" depart="12.2"/>
    </person>
    
    <person id="ped387" type="ped_pedestrian" depart="11.58">
        <walk busStop="152_bus_M15-SBS:1"/>
        <ride intended="198_subway_4:4" depart="12.1"/>
    </person>
    
    <person id="ped390" type="ped_pedestrian" depart="11.59">
        <walk busStop="126_bus_M5:1"/>
        <ride intended="20_subway_F:0" depart="12.0"/>
    </person>
    
    <person id="ped396" type="ped_pedestrian" depart="12.8">
        <walk busStop="89_bus_M42:0"/>
        <ride intended="193_subway_E:5" depart="12.11"/>
    </person>
    
    <person id="ped397" type="ped_pedestrian" depart="12.9">
        <walk busStop="89_bus_M42:0"/>
        <ride intended="140_subway_3:0" depart="12.11"/>
    </person>
    
    <person id="ped404" type="ped_pedestrian" depart="12.15">
        <walk busStop="114_bus_M50:1"/>
        <ride intended="174_subway_R:1" depart="12.22"/>
    </person>
    
    <person id="ped405" type="ped_pedestrian" depart="12.16">
        <walk busStop="114_bus_M50:1"/>
        <ride intended="162_subway_S:2" depart="12.24"/>
    </person>
    
    <person id="ped409" type="ped_pedestrian" depart="12.19">
        <walk busStop="142_bus_M12:1"/>
        <ride intended="200_subway_3:2" depart="12.29"/>
    </person>
    
    <person id="ped412" type="ped_pedestrian" depart="12.23">
        <walk busStop="126_bus_M5:1"/>
        <ride intended="180_subway_6:2" depart="12.28"/>
    </person>
    
    <person id="ped413" type="ped_pedestrian" depart="12.23">
        <walk busStop="117_bus_M14A_SBS:1"/>
        <ride intended="170_subway_A:2" depart="12.29"/>
    </person>
    
    <person id="ped414" type="ped_pedestrian" depart="12.24">
        <walk busStop="114_bus_M50:1"/>
        <ride intended="147_subway_2:1" depart="12.28"/>
    </person>
    
    <person id="ped417" type="ped_pedestrian" depart="12.26">
        <walk busStop="92_bus_M5:0"/>
        <ride intended="30_subway_D:0" depart="12.36"/>
    </person>
    
    <person id="ped418" type="ped_pedestrian" depart="12.29">
        <walk busStop="86_bus_Q32:0"/>
        <ride intended="36_subway_E:2" depart="12.36"/>
    </person>
    
    <person id="ped424" type="ped_pedestrian" depart="12.40">
        <walk busStop="122_bus_M15:0"/>
        <ride intended="166_subway_7:0" depart="12.46"/>
    </person>
    
    <person id="ped426" type="ped_pedestrian" depart="12.43">
        <walk busStop="114_bus_M50:1"/>
        <ride intended="133_subway_B:0" depart="12.47"/>
    </person>
    
    <person id="ped431" type="ped_pedestrian" depart="12.48">
        <walk busStop="86_bus_Q32:0"/>
        <ride intended="137_subway_E:4" depart="12.53"/>
    </person>
    
    <person id="ped432" type="ped_pedestrian" depart="12.50">
        <walk busStop="117_bus_M14A_SBS:1"/>
        <ride intended="164_subway_6:0" depart="13.1"/>
    </person>
    
    <person id="ped435" type="ped_pedestrian" depart="12.50">
        <walk busStop="86_bus_Q32:0"/>
        <ride intended="148_subway_HOB–33:1" depart="12.56"/>
    </person>
    
    <person id="ped439" type="ped_pedestrian" depart="12.56">
        <walk busStop="96_bus_M50:0"/>
        <ride intended="130_subway_1:0" depart="13.0"/>
    </person>
    
    <person id="ped440" type="ped_pedestrian" depart="12.56">
        <walk busStop="89_bus_M42:0"/>
        <ride intended="167_subway_7:1" depart="13.1"/>
    </person>
    
    <person id="ped445" type="ped_pedestrian" depart="12.59">
        <walk busStop="89_bus_M42:0"/>
        <ride intended="182_subway_7:2" depart="13.6"/>
    </person>
    
    <person id="ped446" type="ped_pedestrian" depart="13.2">
        <walk busStop="127_bus_M11:1"/>
        <ride intended="135_subway_F:2" depart="13.13"/>
    </person>
    
    <person id="ped448" type="ped_pedestrian" depart="13.3">
        <walk busStop="0_bus_2602:0"/>
        <ride intended="42_subway_Q:1" depart="13.12"/>
    </person>
    