<?xml version="1.0" encoding="UTF-8"?>

<!-- generated on 2021-10-22 19:59:24 by Eclipse SUMO duarouter Version 1.10.0
<configuration xmlns:xsi="http://www.w3.org/2001/XMLSchema-instance" xsi:noNamespaceSchemaLocation="http://sumo.dlr.de/xsd/duarouterConfiguration.xsd">

    <input>
        <net-file value="C:\Users\diani\Sumo\2021-10-22-19-57-50\osm.net.xml"/>
        <route-files value="C:\Users\diani\Sumo\2021-10-22-19-57-50\osm.bus.trips.xml"/>
    </input>

    <output>
        <output-file value="C:\Users\diani\Sumo\2021-10-22-19-57-50\osm.bus.trips.xml.tmp"/>
        <write-trips value="true"/>
    </output>

    <time>
        <begin value="0"/>
        <end value="3600"/>
    </time>

    <report>
        <no-warnings value="true"/>
        <ignore-errors value="true"/>
        <no-step-log value="true"/>
    </report>

</configuration>
-->

<routes xmlns:xsi="http://www.w3.org/2001/XMLSchema-instance" xsi:noNamespaceSchemaLocation="http://sumo.dlr.de/xsd/routes_file.xsd">
    <vType id="bus_bus" vClass="bus"/>
    <trip id="bus0" type="bus_bus" depart="0.00" departLane="best" departSpeed="max" from="5669566" to="-388696206"/>
    <trip id="bus1" type="bus_bus" depart="1.39" departLane="best" from="36806906#1" to="22898643"/>
    <trip id="bus2" type="bus_bus" depart="2.77" departLane="best" from="569345474" to="5670736#2"/>
    <trip id="bus3" type="bus_bus" depart="4.16" departLane="best" from="846142553#4" to="-988992295#0"/>
    <trip id="bus4" type="bus_bus" depart="5.55" departLane="best" from="458166893#0" to="-420872197#1"/>
    <trip id="bus5" type="bus_bus" depart="6.93" departLane="best" from="22904005" to="46481747#2"/>
    <trip id="bus6" type="bus_bus" depart="8.32" departLane="best" from="-384178812#1" to="226041004"/>
    <trip id="bus7" type="bus_bus" depart="9.70" departLane="best" from="5670106#5" to="46538335#0"/>
    <trip id="bus8" type="bus_bus" depart="11.09" departLane="best" from="22909152#0" to="497165756#10"/>
    <trip id="bus9" type="bus_bus" depart="12.48" departLane="best" departSpeed="max" from="682359027" to="-195743152#0"/>
    <trip id="bus10" type="bus_bus" depart="13.86" departLane="best" from="671212509" to="5671574#1"/>
    <trip id="bus11" type="bus_bus" depart="15.25" departLane="best" from="420802028#2" to="195743341#3"/>
    <trip id="bus12" type="bus_bus" depart="16.64" departLane="best" from="968394451" to="420520112#0"/>
    <trip id="bus13" type="bus_bus" depart="18.02" departLane="best" from="127693103#2" to="127693383#0"/>
    <trip id="bus14" type="bus_bus" depart="19.41" departLane="best" from="743358444#1" to="499172074#16"/>
    <trip id="bus15" type="bus_bus" depart="20.79" departLane="best" from="681042531#0" to="5673461#8"/>
    <trip id="bus16" type="bus_bus" depart="22.18" departLane="best" from="46525058" to="986615540#0"/>
    <trip id="bus17" type="bus_bus" depart="23.57" departLane="best" from="420907906#3" to="474635898#1"/>
    <trip id="bus18" type="bus_bus" depart="24.95" departLane="best" from="696491643#0" to="524546351"/>
    <trip id="bus19" type="bus_bus" depart="26.34" departLane="best" from="788278350#2" to="496986803#4"/>
    <trip id="bus20" type="bus_bus" depart="27.73" departLane="best" from="5672151#1" to="-496982023#2"/>
    <trip id="bus22" type="bus_bus" depart="30.50" departLane="best" from="156994961#2" to="36801355#0"/>
    <trip id="bus23" type="bus_bus" depart="31.89" departLane="best" from="420904615#0" to="226041025#4"/>
    <trip id="bus25" type="bus_bus" depart="34.66" departLane="best" from="5670029#1" to="505766273#1"/>
    <trip id="bus26" type="bus_bus" depart="36.04" departLane="best" from="196117073#1" to="420906755#0"/>
    <trip id="bus27" type="bus_bus" depart="37.43" departLane="best" from="989265274#3" to="543717203#0"/>
    <trip id="bus28" type="bus_bus" depart="38.82" departLane="best" from="485556247#1" to="5670942#3"/>
    <trip id="bus29" type="bus_bus" depart="40.20" departLane="best" from="729972919#0" to="619280617#0"/>
    <trip id="bus30" type="bus_bus" depart="41.59" departLane="best" from="25162679#9" to="-420904618#1"/>
    <trip id="bus31" type="bus_bus" depart="42.98" departLane="best" from="420356168" to="350726028#11"/>
    <trip id="bus32" type="bus_bus" depart="44.36" departLane="best" from="226092573#1" to="954520389#5"/>
    <trip id="bus33" type="bus_bus" depart="45.75" departLane="best" from="812949648#8" to="396444293#1"/>
    <trip id="bus34" type="bus_bus" depart="47.13" departLane="best" departSpeed="max" from="5670254#0" to="438385431#1"/>
    <trip id="bus35" type="bus_bus" depart="48.52" departLane="best" from="889114531#1" to="46201649"/>
    <trip id="bus36" type="bus_bus" depart="49.91" departLane="best" departSpeed="max" from="492489888" to="34625463#3"/>
    <trip id="bus37" type="bus_bus" depart="51.29" departLane="best" from="497165756#11" to="847002232#0"/>
    <trip id="bus38" type="bus_bus" depart="52.68" departLane="best" from="447001270#1" to="226193933#16"/>
    <trip id="bus39" type="bus_bus" depart="54.07" departLane="best" departSpeed="max" from="11878036" to="-496995905"/>
    <trip id="bus40" type="bus_bus" depart="55.45" departLane="best" from="169267538#1" to="540356239#9"/>
    <trip id="bus41" type="bus_bus" depart="56.84" departLane="best" from="658583343#0" to="458106348#3"/>
    <trip id="bus42" type="bus_bus" depart="58.23" departLane="best" from="-5672190#2" to="420907908"/>
    <trip id="bus43" type="bus_bus" depart="59.61" departLane="best" from="992132288#1" to="46518739#0"/>
    <trip id="bus44" type="bus_bus" depart="61.00" departLane="best" from="983853455" to="771759766"/>
    <trip id="bus45" type="bus_bus" depart="62.38" departLane="best" departSpeed="max" from="-196117084#2" to="5672951#3"/>
    <trip id="bus46" type="bus_bus" depart="63.77" departLane="best" from="5671160#0" to="46522001#3"/>
    <trip id="bus47" type="bus_bus" depart="65.16" departLane="best" from="36271338#6" to="543902512#1"/>
    <trip id="bus48" type="bus_bus" depart="66.54" departLane="best" from="169267543#1" to="458177133#1"/>
    <trip id="bus49" type="bus_bus" depart="67.93" departLane="best" from="46201630#0" to="963575587#1"/>
    <trip id="bus50" type="bus_bus" depart="69.32" departLane="best" from="812949648#6" to="34625464#1"/>
    <trip id="bus51" type="bus_bus" depart="70.70" departLane="best" from="46481747#2" to="196117092"/>
    <trip id="bus53" type="bus_bus" depart="73.48" departLane="best" from="385668565#5" to="542259076#1"/>
    <trip id="bus54" type="bus_bus" depart="74.86" departLane="best" from="524546351" to="195743301"/>
    <trip id="bus55" type="bus_bus" depart="76.25" departLane="best" from="601733867" to="46522006#1"/>
    <trip id="bus56" type="bus_bus" depart="77.63" departLane="best" from="626226775#4" to="46518740"/>
    <trip id="bus57" type="bus_bus" depart="79.02" departLane="best" from="-116672333#2" to="409716177"/>
    <trip id="bus59" type="bus_bus" depart="81.79" departLane="best" from="814278018#0" to="698069210#1"/>
    <trip id="bus60" type="bus_bus" depart="83.18" departLane="best" from="396444294#14" to="-5670891#0"/>
    <trip id="bus61" type="bus_bus" depart="84.57" departLane="best" from="813972136" to="960097006"/>
    <trip id="bus62" type="bus_bus" depart="85.95" departLane="best" from="-989270322#1" to="464543615#2"/>
    <trip id="bus63" type="bus_bus" depart="87.34" departLane="best" from="-587038129#0" to="600848479#2"/>
    <trip id="bus64" type="bus_bus" depart="88.72" departLane="best" from="616745176" to="194923800#4"/>
    <trip id="bus65" type="bus_bus" depart="90.11" departLane="best" from="464515259#0" to="46610721#2"/>
    <trip id="bus66" type="bus_bus" depart="91.50" departLane="best" from="358290454#1" to="812936280#8"/>
    <trip id="bus67" type="bus_bus" depart="92.88" departLane="best" from="458166895#1" to="226041027#4"/>
    <trip id="bus68" type="bus_bus" depart="94.27" departLane="best" departSpeed="max" from="46608946#0" to="5673497"/>
    <trip id="bus69" type="bus_bus" depart="95.66" departLane="best" from="226041022#2" to="388240124#16"/>
    <trip id="bus70" type="bus_bus" depart="97.04" departLane="best" from="991939499#0" to="5669669#0"/>
    <trip id="bus71" type="bus_bus" depart="98.43" departLane="best" from="458180186#4" to="46492008"/>
    <trip id="bus72" type="bus_bus" depart="99.82" departLane="best" from="420598373" to="497165753#5"/>
    <trip id="bus73" type="bus_bus" depart="101.20" departLane="best" from="273019810#4" to="226193933#17"/>
    <trip id="bus74" type="bus_bus" depart="102.59" departLane="best" from="-616745176" to="542255948#12"/>
    <trip id="bus75" type="bus_bus" depart="103.97" departLane="best" from="25162679#9" to="852992105#3"/>
    <trip id="bus76" type="bus_bus" depart="105.36" departLane="best" from="771939270#3" to="-616745173"/>
    <trip id="bus77" type="bus_bus" depart="106.75" departLane="best" from="324118557#0" to="5670451#9"/>
    <trip id="bus78" type="bus_bus" depart="108.13" departLane="best" departSpeed="max" from="22897633#0" to="194923807#13"/>
    <trip id="bus79" type="bus_bus" depart="109.52" departLane="best" from="954520389#5" to="496982023#3"/>
    <trip id="bus80" type="bus_bus" depart="110.91" departLane="best" from="46443656#13" to="646635889#0"/>
    <trip id="bus81" type="bus_bus" depart="112.29" departLane="best" from="682278650#1" to="226040993#6"/>
    <trip id="bus82" type="bus_bus" depart="113.68" departLane="best" from="127693388#3" to="458166897#5"/>
    <trip id="bus83" type="bus_bus" depart="115.06" departLane="best" from="458166896#1" to="46334599#1"/>
    <trip id="bus84" type="bus_bus" depart="116.45" departLane="best" departSpeed="max" from="5673511" to="5670719#19"/>
    <trip id="bus85" type="bus_bus" depart="117.84" departLane="best" from="988994184" to="127693388#1"/>
    <trip id="bus86" type="bus_bus" depart="119.22" departLane="best" departSpeed="max" from="451808492#0" to="420522443#3"/>
    <trip id="bus87" type="bus_bus" depart="120.61" departLane="best" from="788278350#0" to="32939514#0"/>
    <trip id="bus88" type="bus_bus" depart="122.00" departLane="best" from="226041001#7" to="460585328#0"/>
    <trip id="bus89" type="bus_bus" depart="123.38" departLane="best" from="458166893#0" to="36806659#0"/>
    <trip id="bus90" type="bus_bus" depart="124.77" departLane="best" from="335935799#0" to="889114533#15"/>
    <trip id="bus91" type="bus_bus" depart="126.16" departLane="best" from="458180194" to="771759768"/>
    <trip id="bus92" type="bus_bus" depart="127.54" departLane="best" from="480112477#2" to="-525729008#1"/>
    <trip id="bus93" type="bus_bus" depart="128.93" departLane="best" from="992164861#0" to="710571389"/>
    <trip id="bus94" type="bus_bus" depart="130.31" departLane="best" departSpeed="max" from="981182867#0" to="895394557#1"/>
    <trip id="bus95" type="bus_bus" depart="131.70" departLane="best" from="747908051#0" to="196117028#0"/>
    <trip id="bus96" type="bus_bus" depart="133.09" departLane="best" from="464683323#1" to="226041030#0"/>
    <trip id="bus97" type="bus_bus" depart="134.47" departLane="best" from="447001272#2" to="-5670891#0"/>
    <trip id="bus98" type="bus_bus" depart="135.86" departLane="best" from="420907908" to="989265268#1"/>
    <trip id="bus99" type="bus_bus" depart="137.25" departLane="best" from="358290454#1" to="643444515#1"/>
    <trip id="bus100" type="bus_bus" depart="138.63" departLane="best" from="46201632" to="458166893#0"/>
    <trip id="bus101" type="bus_bus" depart="140.02" departLane="best" from="968394451" to="991939499#4"/>
    <trip id="bus102" type="bus_bus" depart="141.40" departLane="best" from="483704512#3" to="5672730"/>
    <trip id="bus103" type="bus_bus" depart="142.79" departLane="best" departSpeed="max" from="195743558#0" to="375316256"/>
    <trip id="bus104" type="bus_bus" depart="144.18" departLane="best" departSpeed="max" from="981182867#0" to="496986855#1"/>
    <trip id="bus105" type="bus_bus" depart="145.56" departLane="best" from="46608946#8" to="573228989"/>
    <trip id="bus106" type="bus_bus" depart="146.95" departLane="best" from="-526571477#2" to="496993762#0"/>
    <trip id="bus107" type="bus_bus" depart="148.34" departLane="best" from="46482537#1" to="763121492#1"/>
    <trip id="bus108" type="bus_bus" depart="149.72" departLane="best" from="195834894#0" to="968394452#1"/>
    <trip id="bus109" type="bus_bus" depart="151.11" departLane="best" from="-814612602#1" to="222299258#2"/>
    <trip id="bus110" type="bus_bus" depart="152.50" departLane="best" from="499172074#3" to="5670719#7"/>
    <trip id="bus111" type="bus_bus" depart="153.88" departLane="best" from="308322447#5" to="194920158#1"/>
    <trip id="bus113" type="bus_bus" depart="156.65" departLane="best" from="499172074#15" to="525729009#0"/>
    <trip id="bus114" type="bus_bus" depart="158.04" departLane="best" from="458106346#7" to="496992867"/>
    <trip id="bus116" type="bus_bus" depart="160.81" departLane="best" from="226041027#2" to="5672487#4"/>
    <trip id="bus117" type="bus_bus" depart="162.20" departLane="best" from="324118558#0" to="438385431#1"/>
    <trip id="bus118" type="bus_bus" depart="163.59" departLane="best" from="5670778#1" to="380098431#0"/>
    <trip id="bus119" type="bus_bus" depart="164.97" departLane="best" from="420356171#0" to="587038081#1"/>
    <trip id="bus120" type="bus_bus" depart="166.36" departLane="best" from="-630828555" to="46201647#0"/>
    <trip id="bus121" type="bus_bus" depart="167.75" departLane="best" from="992144532#0" to="992132288#1"/>
    <trip id="bus122" type="bus_bus" depart="169.13" departLane="best" from="-663630710#2" to="226041029#0"/>
    <trip id="bus123" type="bus_bus" depart="170.52" departLane="best" from="358290454#1" to="939613203"/>
    <trip id="bus124" type="bus_bus" depart="171.90" departLane="best" from="814278019#0" to="813972136"/>
    <trip id="bus125" type="bus_bus" depart="173.29" departLane="best" from="420903240#0" to="195743341#6"/>
    <trip id="bus126" type="bus_bus" depart="174.68" departLane="best" from="708353366#1" to="5671709#2"/>
    <trip id="bus127" type="bus_bus" depart="176.06" departLane="best" from="525729010#7" to="989265272#2"/>
    <trip id="bus128" type="bus_bus" depart="177.45" departLane="best" from="5670247#0" to="-195743555#1"/>
    <trip id="bus129" type="bus_bus" depart="178.84" departLane="best" from="68668537#1" to="380093631#3"/>
    <trip id="bus130" type="bus_bus" depart="180.22" departLane="best" from="5670719#1" to="95181768#4"/>
    <trip id="bus131" type="bus_bus" depart="181.61" departLane="best" from="194926842" to="169269031#1"/>
    <trip id="bus132" type="bus_bus" depart="182.99" departLane="best" from="167922073#1" to="474635900#1"/>
    <trip id="bus133" type="bus_bus" depart="184.38" departLane="best" from="36806680#3" to="499172074#5"/>
    <trip id="bus134" type="bus_bus" depart="185.77" departLane="best" from="5672937#1" to="226041009#1"/>
    <trip id="bus135" type="bus_bus" depart="187.15" departLane="best" from="464683339#2" to="852992105#3"/>
    <trip id="bus136" type="bus_bus" depart="188.54" departLane="best" from="742215272#0" to="118714476#0"/>
    <trip id="bus137" type="bus_bus" depart="189.93" departLane="best" from="458166896#1" to="36801165#2"/>
    <trip id="bus138" type="bus_bus" depart="191.31" departLane="best" from="-167922077" to="618990022#5"/>
    <trip id="bus140" type="bus_bus" depart="194.09" departLane="best" from="569345535" to="474635898#0"/>
    <trip id="bus141" type="bus_bus" depart="195.47" departLane="best" from="458166897#13" to="-196117074#1"/>
    <trip id="bus142" type="bus_bus" depart="196.86" departLane="best" from="-68668521#2" to="814278018#7"/>
    <trip id="bus143" type="bus_bus" depart="198.24" departLane="best" from="871693849" to="46538371#0"/>
    <trip id="bus144" type="bus_bus" depart="199.63" departLane="best" from="710571388" to="496989355#3"/>
    <trip id="bus145" type="bus_bus" depart="201.02" departLane="best" departSpeed="max" from="195743211" to="194923800#0"/>
    <trip id="bus146" type="bus_bus" depart="202.40" departLane="best" from="396444294#18" to="847994493"/>
    <trip id="bus147" type="bus_bus" depart="203.79" departLane="best" from="663630710#1" to="771759766"/>
    <trip id="bus148" type="bus_bus" depart="205.18" departLane="best" from="852992101#1" to="226041026#0"/>
    <trip id="bus149" type="bus_bus" depart="206.56" departLane="best" departSpeed="max" from="335935797#0" to="156994961#2"/>
    <trip id="bus150" type="bus_bus" depart="207.95" departLane="best" from="628093103#2" to="814278019#3"/>
    <trip id="bus151" type="bus_bus" depart="209.33" departLane="best" from="452322756#0" to="525729010#4"/>
    <trip id="bus154" type="bus_bus" depart="213.49" departLane="best" from="682360554#1" to="814278018#5"/>
    <trip id="bus155" type="bus_bus" depart="214.88" departLane="best" departSpeed="max" from="-36836395" to="569345499#2"/>
    <trip id="bus156" type="bus_bus" depart="216.27" departLane="best" from="420598275" to="936539648#1"/>
    <trip id="bus157" type="bus_bus" depart="217.65" departLane="best" from="671208357" to="788278350#0"/>
    <trip id="bus158" type="bus_bus" depart="219.04" departLane="best" from="682360554#1" to="350726028#0"/>
    <trip id="bus159" type="bus_bus" depart="220.43" departLane="best" from="654756710#1" to="167922071"/>
    <trip id="bus160" type="bus_bus" depart="221.81" departLane="best" departSpeed="max" from="812936280#0" to="767683114#2"/>
    <trip id="bus161" type="bus_bus" depart="223.20" departLane="best" from="22914179" to="686125782#2"/>
    <trip id="bus162" type="bus_bus" depart="224.58" departLane="best" from="46334593#1" to="384178812#1"/>
    <trip id="bus163" type="bus_bus" depart="225.97" departLane="best" from="663612299#2" to="22909249#3"/>
    <trip id="bus164" type="bus_bus" depart="227.36" departLane="best" departSpeed="max" from="-36836395" to="226040997#4"/>
    <trip id="bus165" type="bus_bus" depart="228.74" departLane="best" from="420522049#7" to="788278350#2"/>
    <trip id="bus166" type="bus_bus" depart="230.13" departLane="best" from="976050704#0" to="36806661#0"/>
    <trip id="bus167" type="bus_bus" depart="231.52" departLane="best" from="5669664#1" to="440122868"/>
    <trip id="bus169" type="bus_bus" depart="234.29" departLane="best" from="983849667#0" to="196117092"/>
    <trip id="bus170" type="bus_bus" depart="235.67" departLane="best" from="968513230#1" to="348477348#6"/>
    <trip id="bus171" type="bus_bus" depart="237.06" departLane="best" from="167922077" to="458177133#0"/>
    <trip id="bus172" type="bus_bus" depart="238.45" departLane="best" departSpeed="max" from="5673511" to="388696206"/>
    <trip id="bus173" type="bus_bus" depart="239.83" departLane="best" from="511755381" to="46482611"/>
    <trip id="bus174" type="bus_bus" depart="241.22" departLane="best" from="421852041" to="496986803#17"/>
    <trip id="bus176" type="bus_bus" depart="243.99" departLane="best" from="-167922072#3" to="895348610#1"/>
    <trip id="bus177" type="bus_bus" depart="245.38" departLane="best" from="46581216#1" to="5672800"/>
    <trip id="bus178" type="bus_bus" depart="246.77" departLane="best" from="569345537#0" to="5670600#1"/>
    <trip id="bus179" type="bus_bus" depart="248.15" departLane="best" from="5670719#14" to="420496091#0"/>
    <trip id="bus180" type="bus_bus" depart="249.54" departLane="best" from="409716177" to="733667933#8"/>
    <trip id="bus181" type="bus_bus" depart="250.92" departLane="best" from="5672965#1" to="380098431#1"/>
    <trip id="bus182" type="bus_bus" depart="252.31" departLane="best" from="396444294#7" to="452322756#3"/>
    <trip id="bus183" type="bus_bus" depart="253.70" departLane="best" departSpeed="max" from="451808492#0" to="375316256"/>
    <trip id="bus184" type="bus_bus" depart="255.08" departLane="best" from="194923803" to="458106346#6"/>
    <trip id="bus185" type="bus_bus" depart="256.47" departLane="best" from="959157335" to="5670771#1"/>
    <trip id="bus186" type="bus_bus" depart="257.86" departLane="best" from="858965316#2" to="511755381"/>
    <trip id="bus187" type="bus_bus" depart="259.24" departLane="best" from="388240124#0" to="46608946#5"/>
    <trip id="bus188" type="bus_bus" depart="260.63" departLane="best" from="-116672333#2" to="36836395"/>
    <trip id="bus189" type="bus_bus" depart="262.02" departLane="best" from="458166897#5" to="496986969#1"/>
    <trip id="bus190" type="bus_bus" depart="263.40" departLane="best" from="5670253#2" to="46334595#2"/>
    <trip id="bus191" type="bus_bus" depart="264.79" departLane="best" from="458180192#2" to="226041030#0"/>
    <trip id="bus192" type="bus_bus" depart="266.17" departLane="best" from="46443656#4" to="847994494#9"/>
    <trip id="bus193" type="bus_bus" depart="267.56" departLane="best" from="663612305" to="196117073#0"/>
    <trip id="bus194" type="bus_bus" depart="268.95" departLane="best" from="-989265268#1" to="46491363"/>
    <trip id="bus195" type="bus_bus" depart="270.33" departLane="best" from="544812894" to="420514149#3"/>
    <trip id="bus196" type="bus_bus" depart="271.72" departLane="best" from="68668541#1" to="587038047"/>
    <trip id="bus197" type="bus_bus" depart="273.11" departLane="best" from="5670803#1" to="22904149#1"/>
    <trip id="bus198" type="bus_bus" depart="274.49" departLane="best" from="226041020" to="-384178812#4"/>
    <trip id="bus200" type="bus_bus" depart="277.26" departLane="best" from="763121489" to="-630828555"/>
    <trip id="bus201" type="bus_bus" depart="278.65" departLane="best" from="458106344#0" to="542096278#1"/>
    <trip id="bus202" type="bus_bus" depart="280.04" departLane="best" from="226041006#0" to="5671459#1"/>
    <trip id="bus204" type="bus_bus" depart="282.81" departLane="best" departSpeed="max" from="5670254#0" to="-195743152#0"/>
    <trip id="bus205" type="bus_bus" depart="284.20" departLane="best" from="167922072#7" to="458166896#10"/>
    <trip id="bus206" type="bus_bus" depart="285.58" departLane="best" from="198924552#1" to="965833822#5"/>
    <trip id="bus207" type="bus_bus" depart="286.97" departLane="best" from="465098290" to="-525033953#0"/>
    <trip id="bus208" type="bus_bus" depart="288.36" departLane="best" departSpeed="max" from="335935797#0" to="739911956"/>
    <trip id="bus210" type="bus_bus" depart="291.13" departLane="best" from="5670719#8" to="989265273#0"/>
    <trip id="bus211" type="bus_bus" depart="292.51" departLane="best" from="499172074#5" to="963567032"/>
    <trip id="bus212" type="bus_bus" depart="293.90" departLane="best" from="846142553#1" to="511699179"/>
    <trip id="bus213" type="bus_bus" depart="295.29" departLane="best" from="5672954" to="46481747#1"/>
    <trip id="bus214" type="bus_bus" depart="296.67" departLane="best" from="698069210#1" to="46608946#5"/>
    <trip id="bus215" type="bus_bus" depart="298.06" departLane="best" from="848021604#1" to="569345539"/>
    <trip id="bus216" type="bus_bus" depart="299.45" departLane="best" from="46443656#8" to="34080062#0"/>
    <trip id="bus217" type="bus_bus" depart="300.83" departLane="best" from="33117932#1-AddedOffRampEdge" to="542258337#2"/>
    <trip id="bus219" type="bus_bus" depart="303.60" departLane="best" from="542257982#0" to="36271338#0"/>
    <trip id="bus220" type="bus_bus" depart="304.99" departLane="best" from="-699843297" to="36807208#1"/>
    <trip id="bus221" type="bus_bus" depart="306.38" departLane="best" from="36806680#1" to="396444294#8"/>
    <trip id="bus222" type="bus_bus" depart="307.76" departLane="best" departSpeed="max" from="46608946#0" to="194926843#1"/>
    <trip id="bus224" type="bus_bus" depart="310.54" departLane="best" from="5672190#4" to="-5672752#0"/>
    <trip id="bus225" type="bus_bus" depart="311.92" departLane="best" from="452322756#8" to="46522160#1"/>
    <trip id="bus226" type="bus_bus" depart="313.31" departLane="best" from="458106345#1" to="226041021#2"/>
    <trip id="bus227" type="bus_bus" depart="314.70" departLane="best" from="458106347#3" to="852992105#3"/>
    <trip id="bus228" type="bus_bus" depart="316.08" departLane="best" from="497165756#1" to="5671440#2"/>
    <trip id="bus229" type="bus_bus" depart="317.47" departLane="best" from="767990686#1" to="616745175#7"/>
    <trip id="bus230" type="bus_bus" depart="318.85" departLane="best" from="420908131" to="-195743152#0"/>
    <trip id="bus231" type="bus_bus" depart="320.24" departLane="best" departSpeed="max" from="420894352#0" to="587061869#1"/>
    <trip id="bus232" type="bus_bus" depart="321.63" departLane="best" from="767683110#2" to="963575587#0"/>
    <trip id="bus233" type="bus_bus" depart="323.01" departLane="best" from="458106346#6" to="571651963#0"/>
    <trip id="bus234" type="bus_bus" depart="324.40" departLane="best" from="474635898#2" to="499172074#16"/>
    <trip id="bus235" type="bus_bus" depart="325.79" departLane="best" from="22909152#1" to="226193933#16"/>
    <trip id="bus236" type="bus_bus" depart="327.17" departLane="best" from="458180184#1" to="-420598407"/>
    <trip id="bus237" type="bus_bus" depart="328.56" departLane="best" from="420598339" to="5670785#2"/>
    <trip id="bus238" type="bus_bus" depart="329.94" departLane="best" departSpeed="max" from="451905565#0" to="196116998"/>
    <trip id="bus239" type="bus_bus" depart="331.33" departLane="best" from="46431823#0" to="194923800#0"/>
    <trip id="bus240" type="bus_bus" depart="332.72" departLane="best" from="542255948#4" to="-420522443#0"/>
    <trip id="bus241" type="bus_bus" depart="334.10" departLane="best" from="439933932#1" to="485746107#2"/>
    <trip id="bus242" type="bus_bus" depart="335.49" departLane="best" from="-384178812#3" to="544812894"/>
    <trip id="bus243" type="bus_bus" depart="336.88" departLane="best" from="194926847" to="46201653"/>
    <trip id="bus244" type="bus_bus" depart="338.26" departLane="best" from="226193933#10" to="420356171#1"/>
    <trip id="bus245" type="bus_bus" depart="339.65" departLane="best" from="600848479#2" to="420906753"/>
    <trip id="bus246" type="bus_bus" depart="341.04" departLane="best" from="587038047-AddedOnRampEdge" to="700951338"/>
    <trip id="bus247" type="bus_bus" depart="342.42" departLane="best" from="34080062#0" to="-814612602#1"/>
    <trip id="bus248" type="bus_bus" depart="343.81" departLane="best" from="-350726028#8" to="46522006#1"/>
    <trip id="bus249" type="bus_bus" depart="345.19" departLane="best" from="993383311" to="420872190#1"/>
    <trip id="bus250" type="bus_bus" depart="346.58" departLane="best" from="5670106#6" to="630828585#0"/>
    <trip id="bus251" type="bus_bus" depart="347.97" departLane="best" from="964800699" to="226041005#1"/>
    <trip id="bus252" type="bus_bus" depart="349.35" departLane="best" departSpeed="max" from="-36185649" to="195743301"/>
    <trip id="bus253" type="bus_bus" depart="350.74" departLane="best" from="194923801#3" to="5670466"/>
    <trip id="bus254" type="bus_bus" depart="352.13" departLane="best" from="496978510#0" to="226092573#1"/>
    <trip id="bus255" type="bus_bus" depart="353.51" departLane="best" from="5671709#0" to="617425347"/>
    <trip id="bus256" type="bus_bus" depart="354.90" departLane="best" from="196117090#4" to="505537786#2"/>
    <trip id="bus257" type="bus_bus" depart="356.29" departLane="best" from="569345547#1" to="169267543#0"/>
    <trip id="bus258" type="bus_bus" depart="357.67" departLane="best" from="68668556" to="968513229"/>
    <trip id="bus259" type="bus_bus" depart="359.06" departLane="best" from="167922076" to="-420509471#1"/>
    <trip id="bus260" type="bus_bus" depart="360.44" departLane="best" from="396444295#8" to="5670771#2"/>
    <trip id="bus261" type="bus_bus" depart="361.83" departLane="best" from="968394453" to="438385431#4"/>
    <trip id="bus262" type="bus_bus" depart="363.22" departLane="best" departSpeed="max" from="5672629" to="-68668521#6"/>
    <trip id="bus263" type="bus_bus" depart="364.60" departLane="best" from="5671425#0" to="540356239#9"/>
    <trip id="bus264" type="bus_bus" depart="365.99" departLane="best" from="763121492#1" to="499172074#0"/>
    <trip id="bus265" type="bus_bus" depart="367.38" departLane="best" from="194923794#1" to="988987066#2"/>
    <trip id="bus266" type="bus_bus" depart="368.76" departLane="best" from="630828586#0" to="420802028#1"/>
    <trip id="bus267" type="bus_bus" depart="370.15" departLane="best" from="458166897#15" to="420902585#5"/>
    <trip id="bus268" type="bus_bus" depart="371.53" departLane="best" from="46482603" to="420598327"/>
    <trip id="bus269" type="bus_bus" depart="372.92" departLane="best" from="763121489" to="68674960#1"/>
    <trip id="bus270" type="bus_bus" depart="374.31" departLane="best" from="167922072#4" to="968394452#1"/>
    <trip id="bus271" type="bus_bus" depart="375.69" departLane="best" from="5669218" to="691480071#0"/>
    <trip id="bus272" type="bus_bus" depart="377.08" departLane="best" from="5672211#3" to="458180181#0"/>
    <trip id="bus273" type="bus_bus" depart="378.47" departLane="best" from="5673561#7" to="968513230#1"/>
    <trip id="bus274" type="bus_bus" depart="379.85" departLane="best" from="36806659#0" to="671212509"/>
    <trip id="bus275" type="bus_bus" depart="381.24" departLane="best" from="46581216#0" to="464516471#3"/>
    <trip id="bus277" type="bus_bus" depart="384.01" departLane="best" from="36801250" to="747908052#1"/>
    <trip id="bus278" type="bus_bus" depart="385.40" departLane="best" from="700951338" to="-988992295#0"/>
    <trip id="bus279" type="bus_bus" depart="386.78" departLane="best" from="46334599#4" to="505777317#1"/>
    <trip id="bus280" type="bus_bus" depart="388.17" departLane="best" from="420907908" to="-420598373"/>
    <trip id="bus281" type="bus_bus" depart="389.56" departLane="best" from="763126559#0" to="198924551#1"/>