<?xml version="1.0" encoding="UTF-8"?>
<!-- generated on 2021-10-22 19:58:32.965750 by $Id: ptlines2flows.py v1_3_1+0313-ccb31df3eb jakob.erdmann@dlr.de 2019-09-02 13:26:32 +0200 $ v1_10_0+0000-83496a5972
  options: 
-->
<routes xmlns:xsi="http://www.w3.org/2001/XMLSchema-instance" xsi:noNamespaceSchemaLocation="http://sumo.dlr.de/xsd/routes_file.xsd">
    <vType id="pt_bus" vClass="bus"/>
    <vType id="pt_tram" vClass="tram"/>
    <vType id="pt_train" vClass="rail"/>
    <vType id="pt_subway" vClass="rail_urban"/>
    <vType id="pt_light_rail" vClass="rail_urban"/>
    <vType id="pt_monorail" vClass="rail"/>
    <vType id="pt_trolleybus" vClass="bus"/>
    <vType id="pt_aerialway" vClass="bus"/>
    <vType id="pt_ferry" vClass="ship"/>
    <route id="pt_subway_S:0" edges="817036018" >
        <stop busStop="7630776657" duration="30.00" until="31.0"/> <!-- Times Square -->
        <stop busStop="7630776662" duration="30.00" until="91.0"/> <!-- Grand Central -->
    </route>
    <route id="pt_subway_JSQ–33_via_HOB:0" edges="-552266811 -579074444 802782788 813712317 -552266808" >
        <stop busStop="-5332398711" duration="30.00" until="31.0"/> <!-- 33rd Street -->
        <stop busStop="5551785165" duration="30.00" until="107.0"/> <!-- 23rd Street -->
        <stop busStop="-7509382447" duration="30.00" until="138.0"/> <!-- 14th Street -->
    </route>
    <route id="pt_bus_2602:0" edges="767683111#1 767683110#2 767683108#0 460069727#1 5672730 207542284 36806908 46492009 968406200 46482819#1 320888292" >
        <stop busStop="7167585626" duration="30.00" until="35.0"/> <!-- FlixBus NYC 300 W 31st St. -->
    </route>
    <route id="pt_train_Harlem:0" edges="759945015" >
        <stop busStop="100515086" duration="30.00" until="31.0"/> <!-- Grand Central Terminal -->
    </route>
    <route id="pt_bus_2601:0" edges="767683111#1 767683110#2 767683108#0 460069727#1 5672730 207542284 36806908 46492009 968406200 46482819#1 320888292" >
        <stop busStop="7167585626" duration="30.00" until="36.0"/> <!-- FlixBus NYC 300 W 31st St. -->
    </route>
    <route id="pt_subway_S:1" edges="-821671625#1" >
        <stop busStop="-7630776662" duration="30.00" until="31.0"/> <!-- Grand Central -->
        <stop busStop="-7630776657" duration="30.00" until="89.0"/> <!-- Times Square -->
    </route>
    <route id="pt_train_Hudson:0" edges="759945015" >
        <stop busStop="100515086" duration="30.00" until="31.0"/> <!-- Grand Central Terminal -->
    </route>
    <route id="pt_bus_2601:1" edges="5669566 36806907 46492015 46492007 465256869 465256868 68325075 500182596 5670275 420901925 36806658 36806659#0 36806659#1 767683112#0 767683112#1 767683107#2 767683111#0 767683111#1" >
        <stop busStop="7167585626" duration="30.00" until="304.0"/> <!-- FlixBus NYC 300 W 31st St. -->
    </route>
    <route id="pt_bus_125:0" edges="8028096 5669218 36807165#0 36807165#1 223694351 273895450 36807166 5669332#1 36836400#0 36836400#1 36807214 -36807212" >
    </route>
    <route id="pt_subway_JSQ–33_via_HOB:1" edges="591434572 802782787 579074443 552266811" >
        <stop busStop="5404334152" duration="30.00" until="31.0"/> <!-- 9th Street -->
        <stop busStop="7509382448" duration="30.00" until="95.0"/> <!-- 14th Street -->
        <stop busStop="5551785164" duration="30.00" until="149.0"/> <!-- 23rd Street -->
        <stop busStop="5332398711" duration="30.00" until="236.0"/> <!-- 33rd Street -->
    </route>
    <route id="pt_bus_M23_SBS:0" edges="22904005 763121489 34625463#0 34625463#2 34625463#3 -420908136#0" >
        <stop busStop="8378777761" duration="30.00" until="44.0"/> <!-- 12th Avenue & West 23rd Street -->
    </route>
    <route id="pt_bus_2602:1" edges="5669566 36806907 46492015 46492007 465256869 465256868 68325075 500182596 5670275 420901925 36806658 36806659#0 36806659#1 767683112#0 767683112#1 767683107#2 767683111#0 767683111#1" >
        <stop busStop="7167585626" duration="30.00" until="338.0"/> <!-- FlixBus NYC 300 W 31st St. -->
    </route>
    <route id="pt_bus_2686:1" edges="767683111#1 767683110#2 767683108#0 460069727#1 5672730 207542284 36806908 46492009 968406200 46482819#1 320888292" >
        <stop busStop="7167585626" duration="30.00" until="34.0"/> <!-- FlixBus NYC 300 W 31st St. -->
    </route>
    <route id="pt_bus_M14A_SBS:1" edges="350726031#1" >
        <stop busStop="3913758293" duration="30.00" until="42.0"/> <!-- West 14th Street & 9th Avenue -->
    </route>
    <route id="pt_bus_2601:2" edges="767683111#1 767683110#2 767683108#0 460069727#1 5672730 207542284 36806908 46492009 968406200 46482819#1 320888292" >
        <stop busStop="7167585626" duration="30.00" until="35.0"/> <!-- FlixBus NYC 300 W 31st St. -->
    </route>
    <route id="pt_train_New_Haven:0" edges="759945015" >
        <stop busStop="100515086" duration="30.00" until="31.0"/> <!-- Grand Central Terminal -->
    </route>
    <route id="pt_bus_M66:0" edges="968393473#0 968393473#6 945384088#1 945384088#3 945384088#5" >
        <stop busStop="3278932320" duration="30.00" until="94.0"/> <!-- 67th St / Lexington Ave -->
    </route>
    <route id="pt_bus_2683:1" edges="767683111#1 767683110#2 767683108#0 460069727#1 5672730 207542284 36806908 46492009 968406200 46482819#1 320888292" >
        <stop busStop="7167585626" duration="30.00" until="34.0"/> <!-- FlixBus NYC 300 W 31st St. -->
    </route>
    <route id="pt_bus_2686:0" edges="5669566 36806907 46492015 46492007 465256869 465256868 68325075 500182596 5670275 420901925 36806658 36806659#0 36806659#1 767683112#0 767683112#1 767683107#2 767683111#0 767683111#1" >
        <stop busStop="7167585626" duration="30.00" until="405.0"/> <!-- FlixBus NYC 300 W 31st St. -->
    </route>
    <route id="pt_bus_QM7:0" edges="169383516#1" >
        <stop busStop="6133359418" duration="30.00" until="36.0"/> <!-- 1 Av/E 42 St -->
    </route>
    <route id="pt_bus_2680:0" edges="767683111#1 767683110#2 767683108#0 460069727#1 5672730 207542284 36806908 46492009 968406200 46482819#1 320888292" >
        <stop busStop="7167585626" duration="30.00" until="33.0"/> <!-- FlixBus NYC 300 W 31st St. -->
    </route>
    <route id="pt_bus_2601:3" edges="5669566 36806907 46492015 46492007 465256869 465256868 68325075 500182596 5670275 420901925 36806658 36806659#0 36806659#1 767683112#0 767683112#1 767683107#2 767683111#0 767683111#1" >
        <stop busStop="7167585626" duration="30.00" until="439.0"/> <!-- FlixBus NYC 300 W 31st St. -->
    </route>
    <route id="pt_subway_5:1" edges="817018813" >
        <stop busStop="4983147337" duration="30.00" until="57.0"/> <!-- 14th Street–Union Square -->
        <stop busStop="7630558481" duration="30.00" until="109.0"/> <!-- 42nd Street–Grand Central -->
        <stop busStop="7630410489" duration="30.00" until="140.0"/> <!-- 59th Street -->
        <stop busStop="7630379982" duration="30.00" until="171.0"/> <!-- 86th Street -->
    </route>
    <route id="pt_subway_5:0" edges="816983740" >
        <stop busStop="7630379968" duration="30.00" until="92.0"/> <!-- 86th Street -->
        <stop busStop="7630379974" duration="30.00" until="206.0"/> <!-- 59th Street -->
        <stop busStop="7630588825" duration="30.00" until="237.0"/> <!-- 42nd Street–Grand Central -->
        <stop busStop="4983147359" duration="30.00" until="268.0"/> <!-- 14th Street–Union Square -->
    </route>
    <route id="pt_subway_D:0" edges="813712314 819186612 715214988 816331850" >
        <stop busStop="7650206934" duration="30.00" until="75.0"/> <!-- 34th Street–Herald Square -->
        <stop busStop="7657247704" duration="30.00" until="106.0"/> <!-- 42nd Street–Bryant Park -->
        <stop busStop="7650206932" duration="30.00" until="137.0"/> <!-- 47th–50th Streets–Rockefeller Center -->
        <stop busStop="7657247698" duration="30.00" until="283.0"/> <!-- 7th Avenue -->
        <stop busStop="6463379284" duration="30.00" until="374.0"/> <!-- 59th Street–Columbus Circle -->
    </route>
    <route id="pt_train_55:0" edges="756094508 46493326 879081748#1 756094522 5671507#0 5671507#1 5671507#2 5671507#3 32965981" >
        <stop busStop="6342154195" duration="30.00" until="70.0"/> <!-- New York Penn Station -->
    </route>
    <route id="pt_subway_A:0" edges="46340129 816679186 719086610#0" >
        <stop busStop="6463380709" duration="30.00" until="61.0"/> <!-- 59th Street–Columbus Circle -->
        <stop busStop="6751642217" duration="30.00" until="118.0"/> <!-- 50th Street -->
        <stop busStop="6751622968" duration="30.00" until="204.0"/> <!-- 42nd Street–Port Authority Bus Terminal -->
        <stop busStop="6923621274" duration="30.00" until="235.0"/> <!-- 34th Street–Penn Station -->
        <stop busStop="6923621238" duration="30.00" until="266.0"/> <!-- 23rd Street -->
        <stop busStop="6923621199" duration="30.00" until="297.0"/> <!-- 14th Street -->
    </route>
    <route id="pt_subway_HOB–33:0" edges="-552266810 802782788 813712317 -552266808" >
        <stop busStop="-5332358378" duration="30.00" until="31.0"/> <!-- 33rd Street -->
        <stop busStop="5551785165" duration="30.00" until="107.0"/> <!-- 23rd Street -->
        <stop busStop="-7509382447" duration="30.00" until="138.0"/> <!-- 14th Street -->
    </route>
    <route id="pt_subway_5:2" edges="817018813" >
        <stop busStop="4983147337" duration="30.00" until="50.0"/> <!-- 14th Street–Union Square -->
        <stop busStop="7630558481" duration="30.00" until="102.0"/> <!-- 42nd Street–Grand Central -->
        <stop busStop="7630410489" duration="30.00" until="133.0"/> <!-- 59th Street -->
        <stop busStop="7630379982" duration="30.00" until="164.0"/> <!-- 86th Street -->
    </route>
    <route id="pt_subway_A:1" edges="741691192 816336111 689037414" >
        <stop busStop="6923621203" duration="30.00" until="73.0"/> <!-- 14th Street -->
        <stop busStop="6923621236" duration="30.00" until="104.0"/> <!-- 23rd Street -->
        <stop busStop="6923621277" duration="30.00" until="135.0"/> <!-- 34th Street–Penn Station -->
        <stop busStop="6751642166" duration="30.00" until="166.0"/> <!-- 42nd Street–Port Authority Bus Terminal -->
        <stop busStop="6751642238" duration="30.00" until="313.0"/> <!-- 50th Street -->
        <stop busStop="6463380701" duration="30.00" until="399.0"/> <!-- 59th Street–Columbus Circle -->
    </route>
    <route id="pt_subway_5:3" edges="816983740" >
        <stop busStop="7630379968" duration="30.00" until="88.0"/> <!-- 86th Street -->
        <stop busStop="7630379974" duration="30.00" until="202.0"/> <!-- 59th Street -->
        <stop busStop="7630588825" duration="30.00" until="233.0"/> <!-- 42nd Street–Grand Central -->
        <stop busStop="4983147359" duration="30.00" until="264.0"/> <!-- 14th Street–Union Square -->
    </route>
    <route id="pt_subway_D:1" edges="171570637 715214987 715214982 819186625" >
        <stop busStop="6463380721" duration="30.00" until="69.0"/> <!-- 59th Street–Columbus Circle -->
        <stop busStop="7657247700" duration="30.00" until="126.0"/> <!-- 7th Avenue -->
        <stop busStop="7650206922" duration="30.00" until="214.0"/> <!-- 47th–50th Streets–Rockefeller Center -->
        <stop busStop="591997397" duration="30.00" until="260.0"/> <!-- 42nd Street–Bryant Park -->
        <stop busStop="5350434153" duration="30.00" until="291.0"/> <!-- 34th Street–Herald Square -->
    </route>
    <route id="pt_bus_2683:0" edges="5669566 36806907 46492015 46492007 465256869 465256868 68325075 500182596 5670275 420901925 36806658 36806659#0 36806659#1 767683112#0 767683112#1 767683107#2 767683111#0 767683111#1" >
        <stop busStop="7167585626" duration="30.00" until="478.0"/> <!-- FlixBus NYC 300 W 31st St. -->
    </route>
    <route id="pt_subway_JSQ–33:0" edges="591434572 802782787 552256574" >
        <stop busStop="5404334152" duration="30.00" until="31.0"/> <!-- 9th Street -->
        <stop busStop="7509382448" duration="30.00" until="95.0"/> <!-- 14th Street -->
        <stop busStop="5551785164" duration="30.00" until="149.0"/> <!-- 23rd Street -->
    </route>
    <route id="pt_subway_D:2" edges="813712314 819186612 715214988 816331850" >
        <stop busStop="7650206934" duration="30.00" until="71.0"/> <!-- 34th Street–Herald Square -->
        <stop busStop="7657247704" duration="30.00" until="102.0"/> <!-- 42nd Street–Bryant Park -->
        <stop busStop="7650206932" duration="30.00" until="133.0"/> <!-- 47th–50th Streets–Rockefeller Center -->
        <stop busStop="7657247698" duration="30.00" until="316.0"/> <!-- 7th Avenue -->
        <stop busStop="6463379284" duration="30.00" until="409.0"/> <!-- 59th Street–Columbus Circle -->
    </route>
    <route id="pt_subway_L:0" edges="815767574#0 815767574#1 815767574#2" >
        <stop busStop="7618745559" duration="30.00" until="31.0"/> <!-- 8th Avenue -->
        <stop busStop="5332358381" duration="30.00" until="84.0"/> <!-- 6th Avenue -->
        <stop busStop="7618745565" duration="30.00" until="115.0"/> <!-- Union Square -->
    </route>
    <route id="pt_train_57:0" edges="756094508 46493326 879081748#1 756094522 5671507#0 5671507#1 5671507#2 5671507#3 32965981" >
        <stop busStop="6342154195" duration="30.00" until="103.0"/> <!-- New York Penn Station -->
    </route>
    <route id="pt_bus_2680:1" edges="5669566 36806907 46492015 46492007 465256869 465256868 68325075 500182596 5670275 420901925 36806658 36806659#0 36806659#1 767683112#0 767683112#1 767683107#2 767683111#0 767683111#1" >
        <stop busStop="7167585626" duration="30.00" until="511.0"/> <!-- FlixBus NYC 300 W 31st St. -->
    </route>
    <route id="pt_subway_F:1" edges="554387911 819186628 819186615" >
        <stop busStop="6943260578" duration="30.00" until="58.0"/> <!-- West 4th Street–Washington Square -->
        <stop busStop="7535669386" duration="30.00" until="114.0"/> <!-- 14th Street -->
        <stop busStop="7657247708" duration="30.00" until="145.0"/> <!-- 23rd Street -->
        <stop busStop="7650207498" duration="30.00" until="176.0"/> <!-- 34th Street–Herald Square -->
        <stop busStop="7657247706" duration="30.00" until="207.0"/> <!-- 42nd Street–Bryant Park -->
        <stop busStop="7650206927" duration="30.00" until="238.0"/> <!-- 47th–50th Streets–Rockefeller Center -->
        <stop busStop="7657247702" duration="30.00" until="403.0"/> <!-- 57th Street -->
        <stop busStop="7656750799" duration="30.00" until="434.0"/> <!-- Lexington Avenue–63rd Street -->
    </route>
    <route id="pt_bus_M57:0" edges="-421851200#1 -421851200#0 -421851201 -587355676 -375165665 -587038082 -497165757#1 -497165757#0 -388696206 -5670139 -497258109#1 496986969#0 496986969#1 5672752#0 5672752#1 196117083#1 505582406#0 505582406#1 196117084#0 196117084#2" >
        <stop busStop="4794775932" duration="30.00" until="211.0"/> <!-- West 57th Street & 7th Avenue -->
        <stop busStop="4794775935" duration="30.00" until="248.0"/> <!-- West 57th Street & 7th Avenue -->
    </route>
    <route id="pt_subway_F:0" edges="46340264 819186626 46340246" >
        <stop busStop="7656750800" duration="30.00" until="60.0"/> <!-- Lexington Avenue–63rd Street -->
        <stop busStop="7657247703" duration="30.00" until="141.0"/> <!-- 57th Street -->
        <stop busStop="597928314" duration="30.00" until="224.0"/> <!-- 47th–50th Streets–Rockefeller Center -->
        <stop busStop="7650206920" duration="30.00" until="282.0"/> <!-- 42nd Street–Bryant Park -->
        <stop busStop="7650207492" duration="30.00" until="313.0"/> <!-- 34th Street–Herald Square -->
        <stop busStop="5551785167" duration="30.00" until="344.0"/> <!-- 23rd Street -->
        <stop busStop="6943277291" duration="30.00" until="375.0"/> <!-- 14th Street -->
        <stop busStop="6943260575" duration="30.00" until="406.0"/> <!-- West 4th Street–Washington Square -->
    </route>
    <route id="pt_train_64:0" edges="756094505" >
        <stop busStop="6165053270" duration="30.00" until="58.0"/> <!-- New York Penn Station -->
    </route>
    <route id="pt_subway_S:2" edges="-484012802" >
        <stop busStop="591997437" duration="30.00" until="39.0"/> <!-- Times Square -->
        <stop busStop="3918987127" duration="30.00" until="70.0"/> <!-- Grand Central -->
    </route>
    <route id="pt_subway_4:0" edges="816983740" >
        <stop busStop="7630379968" duration="30.00" until="128.0"/> <!-- 86th Street -->
        <stop busStop="7630379974" duration="30.00" until="304.0"/> <!-- 59th Street -->
        <stop busStop="7630588825" duration="30.00" until="335.0"/> <!-- 42nd Street–Grand Central -->
        <stop busStop="4983147359" duration="30.00" until="366.0"/> <!-- 14th Street–Union Square -->
    </route>
    <route id="pt_subway_D:3" edges="171570637 715214987 715214982 819186625" >
        <stop busStop="6463380721" duration="30.00" until="102.0"/> <!-- 59th Street–Columbus Circle -->
        <stop busStop="7657247700" duration="30.00" until="160.0"/> <!-- 7th Avenue -->
        <stop busStop="7650206922" duration="30.00" until="313.0"/> <!-- 47th–50th Streets–Rockefeller Center -->
        <stop busStop="591997397" duration="30.00" until="359.0"/> <!-- 42nd Street–Bryant Park -->
        <stop busStop="5350434153" duration="30.00" until="390.0"/> <!-- 34th Street–Herald Square -->
    </route>
    <route id="pt_bus_2610:0" edges="682359027 421852033 989265274#1 989265274#2 989265274#3 194920158#0 194920158#1 194920158#2 814278019#3 814278019#6 814278019#8 814278019#11 420907908 968513231 968513228 968513229 194926855 525729009#0 525729010#0 525729010#1 525729010#4 525729010#6 525729010#7 525729010#8 525729010#10 420901923#0 420901923#1 420901919#0 420901919#1 988515374#0 988515374#1 420901920#1 420901920#2 420901920#3 420901917#1 420901921#0 420901921#1 420901922#0 194926856#1 350726030#1 663515452#1 989270322#1 36806659#0 36806659#1 767683112#0 767683112#1 767683107#2 767683111#0 767683111#1" >
        <stop busStop="7167585626" duration="30.00" until="602.0"/> <!-- FlixBus NYC 300 W 31st St. -->
    </route>
    <route id="pt_train_2167:0" edges="756094508 46493326 879081748#1 756094522 5671507#0 5671507#1 5671507#2 5671507#3 32965981" >
        <stop busStop="6342154195" duration="30.00" until="102.0"/> <!-- New York Penn Station -->
    </route>
    <route id="pt_subway_E:0" edges="741691192 719086607 816679188 819186609" >
        <stop busStop="6923621203" duration="30.00" until="69.0"/> <!-- 14th Street -->
        <stop busStop="6923621236" duration="30.00" until="100.0"/> <!-- 23rd Street -->
        <stop busStop="6923621277" duration="30.00" until="131.0"/> <!-- 34th Street–Penn Station -->
        <stop busStop="6751642166" duration="30.00" until="162.0"/> <!-- 42nd Street–Port Authority Bus Terminal -->
        <stop busStop="7450462465" duration="30.00" until="313.0"/> <!-- 50th Street -->
        <stop busStop="7657247699" duration="30.00" until="344.0"/> <!-- 7th Avenue -->
        <stop busStop="7650207504" duration="30.00" until="443.0"/> <!-- 53rd Street–5th Avenue -->
        <stop busStop="7650173977" duration="30.00" until="490.0"/> <!-- 53rd Street–Lexington Avenue -->
    </route>
    <route id="pt_subway_4:1" edges="817018813" >
        <stop busStop="4983147337" duration="30.00" until="189.0"/> <!-- 14th Street–Union Square -->
        <stop busStop="7630558481" duration="30.00" until="241.0"/> <!-- 42nd Street–Grand Central -->
        <stop busStop="7630410489" duration="30.00" until="272.0"/> <!-- 59th Street -->
        <stop busStop="7630379982" duration="30.00" until="303.0"/> <!-- 86th Street -->
    </route>
    <route id="pt_subway_E:1" edges="759735515 46340266 719086609 719086610#0" >
        <stop busStop="591998010" duration="30.00" until="76.0"/> <!-- 53rd Street–Lexington Avenue -->
        <stop busStop="5407862242" duration="30.00" until="131.0"/> <!-- 53rd Street–5th Avenue -->
        <stop busStop="7657247701" duration="30.00" until="214.0"/> <!-- 7th Avenue -->
        <stop busStop="6751642215" duration="30.00" until="256.0"/> <!-- 50th Street -->
        <stop busStop="6751622968" duration="30.00" until="337.0"/> <!-- 42nd Street–Port Authority Bus Terminal -->
        <stop busStop="6923621274" duration="30.00" until="368.0"/> <!-- 34th Street–Penn Station -->
        <stop busStop="6923621238" duration="30.00" until="399.0"/> <!-- 23rd Street -->
        <stop busStop="6923621199" duration="30.00" until="430.0"/> <!-- 14th Street -->
    </route>
    <route id="pt_subway_JSQ–33:1" edges="-552256574 -579074446#1 -579074446#0 813712317 -552266808" >
        <stop busStop="-5332398715" duration="30.00" until="31.0"/> <!-- 33rd Street -->
        <stop busStop="5551785165" duration="30.00" until="107.0"/> <!-- 23rd Street -->
        <stop busStop="-7509382447" duration="30.00" until="138.0"/> <!-- 14th Street -->
    </route>
    <route id="pt_subway_HOB–33:1" edges="591434572 579074445#0 579074445#1 552266810" >
        <stop busStop="5404334152" duration="30.00" until="31.0"/> <!-- 9th Street -->
        <stop busStop="7509382448" duration="30.00" until="95.0"/> <!-- 14th Street -->
        <stop busStop="5551785164" duration="30.00" until="149.0"/> <!-- 23rd Street -->
        <stop busStop="5332358378" duration="30.00" until="236.0"/> <!-- 33rd Street -->
    </route>
    <route id="pt_bus_M14A_SBS:0" edges="-666752576#2 -666752576#0 -5670924#2 5672434#0 5672434#1 5672434#2 -196117073#2 -196117073#1 -196117073#0 196117074#1 458106348#2 458106348#3 5670451#0 5670451#2 5670451#5 5670451#7 5670451#8 5670451#9 5670451#10 496985713#0 496985713#1 474635899#1 474635904#1" >
        <stop busStop="3913758293@12382566" duration="30.00" until="234.0"/> <!-- West 14th Street & 9th Avenue -->
    </route>
    <route id="pt_subway_E:2" edges="759735515 46340266 719086609 719086610#0" >
        <stop busStop="591998010" duration="30.00" until="71.0"/> <!-- 53rd Street–Lexington Avenue -->
        <stop busStop="5407862242" duration="30.00" until="126.0"/> <!-- 53rd Street–5th Avenue -->
        <stop busStop="7657247701" duration="30.00" until="209.0"/> <!-- 7th Avenue -->
        <stop busStop="6751642215" duration="30.00" until="251.0"/> <!-- 50th Street -->
        <stop busStop="6751622968" duration="30.00" until="332.0"/> <!-- 42nd Street–Port Authority Bus Terminal -->
        <stop busStop="6923621274" duration="30.00" until="363.0"/> <!-- 34th Street–Penn Station -->
        <stop busStop="6923621238" duration="30.00" until="394.0"/> <!-- 23rd Street -->
        <stop busStop="6923621199" duration="30.00" until="425.0"/> <!-- 14th Street -->
    </route>
    <route id="pt_train_54:0" edges="316621098 750256036#0 750256036#1 750256036#2 750256036#3 756094477 571475066#0 571475066#1 750256035#0 750256035#1 750256035#2 750256035#3 572231716 571475065" >
        <stop busStop="6616343384" duration="30.00" until="324.0"/> <!-- New York Penn Station -->
    </route>
    <route id="pt_subway_Q:1" edges="46340259 817381421 821206648#0 821206648#1 817381419 817381397 817381417" >
        <stop busStop="7656750798" duration="30.00" until="67.0"/> <!-- Lexington Avenue–63rd Street -->
        <stop busStop="7656750807" duration="30.00" until="170.0"/> <!-- 57th Street–7th Avenue -->
        <stop busStop="7633689337" duration="30.00" until="241.0"/> <!-- 49th Street -->
        <stop busStop="7656750813" duration="30.00" until="288.0"/> <!-- 42nd Street–Times Square -->
        <stop busStop="7633705497" duration="30.00" until="377.0"/> <!-- 34th Street–Herald Square -->
        <stop busStop="7633689319" duration="30.00" until="431.0"/> <!-- 28th Street -->
        <stop busStop="7633689324" duration="30.00" until="462.0"/> <!-- 23rd Street -->
        <stop busStop="4983147855" duration="30.00" until="493.0"/> <!-- 14th Street–Union Square -->
    </route>
    <route id="pt_train_157:0" edges="756094508 46493326 879081748#1 756094522 5671507#0 5671507#1 5671507#2 5671507#3 32965981" >
        <stop busStop="6342154195" duration="30.00" until="102.0"/> <!-- New York Penn Station -->
    </route>
    <route id="pt_bus_2610:1" edges="767683111#1 767683110#2 767683108#0 460069727#1 46490537#1 46490537#2 767990686#0 767990686#1 460585329#0 460585329#1 708353351#0 708353351#1 708353351#2 498635438#0 498635438#1 194926843#0 194926843#1 46481752#1 194926850#0 421853810#1 992164861#0 992164861#1 935228363 68325061#0 421853647 495253326#2 495253326#4 763126559#0 5673276#1 420904838 505777313#1 505777310 169267539#0 169267539#1 992144532#0 992144532#1 421852041 681042531#0 682359029#0 682359029#1" >
        <stop busStop="7167585626" duration="30.00" until="34.0"/> <!-- FlixBus NYC 300 W 31st St. -->
    </route>
    <route id="pt_bus_M31:0" edges="195743211 584971503#0 324118557#0 324118557#1 226041033 324118556#1 420890025 420890027 420890029 439933933 -196117083#1 -5672752#1 -5672752#0 -496986969#1 -496986969#0 497258109#0 5670139 388696206 497165757#0 497165757#1 505778913 375165665 710571390 587038175#1 421851200#0 421851200#1" >
        <stop busStop="-4794775935" duration="30.00" until="183.0"/> <!-- West 57th Street & 7th Avenue -->
        <stop busStop="-4794775932" duration="30.00" until="221.0"/> <!-- West 57th Street & 7th Avenue -->
    </route>
    <route id="pt_subway_S:3" edges="-821671622" >
        <stop busStop="-3918987127" duration="30.00" until="31.0"/> <!-- Grand Central -->
        <stop busStop="-591997437" duration="30.00" until="93.0"/> <!-- Times Square -->
    </route>
    <route id="pt_subway_L:1" edges="808580928 554402300#1 554402300#2" >
        <stop busStop="7618745568" duration="30.00" until="59.0"/> <!-- Union Square -->
        <stop busStop="5336193667" duration="30.00" until="128.0"/> <!-- 6th Avenue -->
        <stop busStop="591991023" duration="30.00" until="192.0"/> <!-- 8th Avenue -->
    </route>
    <route id="pt_subway_N:1" edges="817415225 817381403 817381402 821206644 821206643 817383474" >
        <stop busStop="7656750825" duration="30.00" until="61.0"/> <!-- 14th Street–Union Square -->
        <stop busStop="7633705521" duration="30.00" until="107.0"/> <!-- 23rd Street -->
        <stop busStop="7633705517" duration="30.00" until="138.0"/> <!-- 28th Street -->
        <stop busStop="7633705506" duration="30.00" until="169.0"/> <!-- 34th Street–Herald Square -->
        <stop busStop="7633705531" duration="30.00" until="292.0"/> <!-- 42nd Street–Times Square -->
        <stop busStop="7633705534" duration="30.00" until="352.0"/> <!-- 49th Street -->
        <stop busStop="7656750809" duration="30.00" until="423.0"/> <!-- 57th Street–7th Avenue -->
        <stop busStop="7656750804" duration="30.00" until="508.0"/> <!-- 5th Avenue–59th Street -->
        <stop busStop="4796291635" duration="30.00" until="579.0"/> <!-- Lexington Avenue–59th Street -->
    </route>
    <route id="pt_subway_3:3" edges="821671629" >
        <stop busStop="5111472138" duration="30.00" until="52.0"/> <!-- 42nd Street–Times Square -->
    </route>
    <route id="pt_bus_M14D_SBS:0" edges="-666752576#2 -666752576#0 -5670924#2 5672434#0 5672434#1 5672434#2 -196117073#2 -196117073#1 -196117073#0 196117074#1 458106348#2 458106348#3 194923791#0 194923791#2 196117075#0 196117075#1 196117075#2 196117075#3 22909152#0 22909152#1 194923792#0 194923792#1 194923802#0 194923802#1 194923802#2 992132287#0" >
        <stop busStop="3913758293@12382567" duration="30.00" until="324.0"/> <!-- West 14th Street & 9th Avenue -->
    </route>
    <route id="pt_subway_3:2" edges="803130478" >
        <stop busStop="5111464772" duration="30.00" until="117.0"/> <!-- 42nd Street–Times Square -->
    </route>
    <route id="pt_train_2170:0" edges="316621098 750256036#0 750256036#1 750256036#2 750256036#3 756094477 571475066#0 571475066#1 750256035#0 750256035#1 750256035#2 750256035#3 572231716 571475065" >
        <stop busStop="6616343384" duration="30.00" until="358.0"/> <!-- New York Penn Station -->
    </route>
    <route id="pt_train_2165:0" edges="46493330 901213208 95579501 756094508 46493326 879081748#1 756094522 5671507#0 5671507#1 5671507#2 5671507#3 32965981" >
        <stop busStop="6342154195" duration="30.00" until="333.0"/> <!-- New York Penn Station -->
    </route>
    <route id="pt_bus_M57:1" edges="-196117084#2 -196117084#1 -505582406#1 -505582406#0 -196117083#1 -5672752#1 -5672752#0 -496986969#1 496986969#1 5672752#0 -5672752#0 -496986969#1 -496986969#0 497258109#0 5670139 388696206 497165757#0 497165757#1 505778913 375165665 710571390 587038175#1 421851200#0 421851200#1" >
        <stop busStop="-4794775932" duration="30.00" until="114.0"/> <!-- West 57th Street & 7th Avenue -->
        <stop busStop="-4794775935" duration="30.00" until="201.0"/> <!-- West 57th Street & 7th Avenue -->
    </route>
    <route id="pt_subway_E:3" edges="741691192 719086607 816679188 819186609" >
        <stop busStop="6923621203" duration="30.00" until="202.0"/> <!-- 14th Street -->
        <stop busStop="6923621236" duration="30.00" until="233.0"/> <!-- 23rd Street -->
        <stop busStop="6923621277" duration="30.00" until="264.0"/> <!-- 34th Street–Penn Station -->
        <stop busStop="6751642166" duration="30.00" until="295.0"/> <!-- 42nd Street–Port Authority Bus Terminal -->
        <stop busStop="7450462465" duration="30.00" until="442.0"/> <!-- 50th Street -->
        <stop busStop="7657247699" duration="30.00" until="473.0"/> <!-- 7th Avenue -->
        <stop busStop="7650207504" duration="30.00" until="572.0"/> <!-- 53rd Street–5th Avenue -->
        <stop busStop="7650173977" duration="30.00" until="619.0"/> <!-- 53rd Street–Lexington Avenue -->
    </route>