<?xml version="1.0" encoding="UTF-8"?>
<!-- generated on 2021-10-22 19:58:25.966438 by $Id: ptlines2flows.py v1_3_1+0313-ccb31df3eb jakob.erdmann@dlr.de 2019-09-02 13:26:32 +0200 $ v1_10_0+0000-83496a5972
  options: 
-->
<routes xmlns:xsi="http://www.w3.org/2001/XMLSchema-instance" xsi:noNamespaceSchemaLocation="http://sumo.dlr.de/xsd/routes_file.xsd">
    <vType id="pt_bus" vClass="bus"/>
    <vType id="pt_tram" vClass="tram"/>
    <vType id="pt_train" vClass="rail"/>
    <vType id="pt_subway" vClass="rail_urban"/>
    <vType id="pt_light_rail" vClass="rail_urban"/>
    <vType id="pt_monorail" vClass="rail"/>
    <vType id="pt_trolleybus" vClass="bus"/>
    <vType id="pt_aerialway" vClass="bus"/>
    <vType id="pt_ferry" vClass="ship"/>
    <trip id="0_bus_2602:0" type="pt_bus" depart="0" departLane="best" from="767683111#1" to="320888292">
        <stop busStop="7167585626" duration="30"/>
    </trip>
    <trip id="1_bus_2601:0" type="pt_bus" depart="3" departLane="best" from="767683111#1" to="320888292">
        <stop busStop="7167585626" duration="30"/>
    </trip>
    <trip id="2_bus_2601:1" type="pt_bus" depart="6" departLane="best" from="5669566" to="767683111#1">
        <stop busStop="7167585626" duration="30"/>
    </trip>
    <trip id="3_bus_2602:1" type="pt_bus" depart="11" departLane="best" from="5669566" to="767683111#1">
        <stop busStop="7167585626" duration="30"/>
    </trip>
    <trip id="4_bus_2610:0" type="pt_bus" depart="15" departLane="best" from="682359027" to="767683111#1">
        <stop busStop="7167585626" duration="30"/>
    </trip>
    <trip id="5_bus_2610:1" type="pt_bus" depart="15" departLane="best" from="767683111#1" to="682359029#1">
        <stop busStop="7167585626" duration="30"/>
    </trip>
    <trip id="6_bus_N2610:0" type="pt_bus" depart="17" departLane="best" from="5669566" to="682359029#1">
        <stop busStop="7167585626" duration="30"/>
    </trip>
    <trip id="7_bus_N2610:1" type="pt_bus" depart="19" departLane="best" from="682359027" to="320888292">
        <stop busStop="7167585626" duration="30"/>
    </trip>
    <trip id="8_bus_2686:0" type="pt_bus" depart="27" departLane="best" from="5669566" to="767683111#1">
        <stop busStop="7167585626" duration="30"/>
    </trip>
    <trip id="9_bus_2686:1" type="pt_bus" depart="28" departLane="best" from="767683111#1" to="320888292">
        <stop busStop="7167585626" duration="30"/>
    </trip>
    <trip id="10_bus_2601:2" type="pt_bus" depart="30" departLane="best" from="767683111#1" to="320888292">
        <stop busStop="7167585626" duration="30"/>
    </trip>
    <trip id="11_bus_2601:3" type="pt_bus" depart="34" departLane="best" from="5669566" to="767683111#1">
        <stop busStop="7167585626" duration="30"/>
    </trip>
    <trip id="12_bus_2683:0" type="pt_bus" depart="38" departLane="best" from="5669566" to="767683111#1">
        <stop busStop="7167585626" duration="30"/>
    </trip>
    <trip id="13_bus_2683:1" type="pt_bus" depart="41" departLane="best" from="767683111#1" to="320888292">
        <stop busStop="7167585626" duration="30"/>
    </trip>
    <trip id="14_bus_2680:0" type="pt_bus" depart="42" departLane="best" from="767683111#1" to="320888292">
        <stop busStop="7167585626" duration="30"/>
    </trip>
    <trip id="15_bus_2680:1" type="pt_bus" depart="42" departLane="best" from="5669566" to="767683111#1">
        <stop busStop="7167585626" duration="30"/>
    </trip>
    <trip id="16_subway_JSQ–33_via_HOB:0" type="pt_subway" depart="47" departLane="best" from="-552266811" to="-552266808">
        <stop busStop="-5332398711" duration="30"/>
        <stop busStop="5551785165" duration="30"/>
        <stop busStop="-7509382447" duration="30"/>
    </trip>
    <trip id="17_subway_JSQ–33_via_HOB:1" type="pt_subway" depart="51" departLane="best" from="591434572" to="552266811">
        <stop busStop="5404334152" duration="30"/>
        <stop busStop="7509382448" duration="30"/>
        <stop busStop="5551785164" duration="30"/>
        <stop busStop="5332398711" duration="30"/>
    </trip>
    <trip id="18_subway_S:0" type="pt_subway" depart="52" departLane="best" from="817036018" to="817036018">
        <stop busStop="7630776657" duration="30"/>
        <stop busStop="7630776662" duration="30"/>
    </trip>
    <trip id="19_subway_S:1" type="pt_subway" depart="54" departLane="best" from="-821671625#1" to="-821671625#1">
        <stop busStop="-7630776662" duration="30"/>
        <stop busStop="-7630776657" duration="30"/>
    </trip>
    <trip id="20_subway_F:0" type="pt_subway" depart="55" departLane="best" from="46340264" to="46340246">
        <stop busStop="7656750800" duration="30"/>
        <stop busStop="7657247703" duration="30"/>
        <stop busStop="597928314" duration="30"/>
        <stop busStop="7650206920" duration="30"/>
        <stop busStop="7650207492" duration="30"/>
        <stop busStop="5551785167" duration="30"/>
        <stop busStop="6943277291" duration="30"/>
        <stop busStop="6943260575" duration="30"/>
    </trip>
    <trip id="21_subway_F:1" type="pt_subway" depart="58" departLane="best" from="554387911" to="819186615">
        <stop busStop="6943260578" duration="30"/>
        <stop busStop="7535669386" duration="30"/>
        <stop busStop="7657247708" duration="30"/>
        <stop busStop="7650207498" duration="30"/>
        <stop busStop="7657247706" duration="30"/>
        <stop busStop="7650206927" duration="30"/>
        <stop busStop="7657247702" duration="30"/>
        <stop busStop="7656750799" duration="30"/>
    </trip>
    <trip id="22_subway_5:0" type="pt_subway" depart="58" departLane="best" from="816983740" to="816983740">
        <stop busStop="7630379968" duration="30"/>
        <stop busStop="7630379974" duration="30"/>
        <stop busStop="7630588825" duration="30"/>
        <stop busStop="4983147359" duration="30"/>
    </trip>
    <trip id="23_subway_5:1" type="pt_subway" depart="59" departLane="best" from="817018813" to="817018813">
        <stop busStop="4983147337" duration="30"/>
        <stop busStop="7630558481" duration="30"/>
        <stop busStop="7630410489" duration="30"/>
        <stop busStop="7630379982" duration="30"/>
    </trip>
    <trip id="24_subway_5:2" type="pt_subway" depart="60" departLane="best" from="817018813" to="817018813">
        <stop busStop="4983147337" duration="30"/>
        <stop busStop="7630558481" duration="30"/>
        <stop busStop="7630410489" duration="30"/>
        <stop busStop="7630379982" duration="30"/>
    </trip>
    <trip id="25_subway_5:3" type="pt_subway" depart="65" departLane="best" from="816983740" to="816983740">
        <stop busStop="7630379968" duration="30"/>
        <stop busStop="7630379974" duration="30"/>
        <stop busStop="7630588825" duration="30"/>
        <stop busStop="4983147359" duration="30"/>
    </trip>
    <trip id="26_subway_4:0" type="pt_subway" depart="66" departLane="best" from="816983740" to="816983740">
        <stop busStop="7630379968" duration="30"/>
        <stop busStop="7630379974" duration="30"/>
        <stop busStop="7630588825" duration="30"/>
        <stop busStop="4983147359" duration="30"/>
    </trip>
    <trip id="27_subway_4:1" type="pt_subway" depart="72" departLane="best" from="817018813" to="817018813">
        <stop busStop="4983147337" duration="30"/>
        <stop busStop="7630558481" duration="30"/>
        <stop busStop="7630410489" duration="30"/>
        <stop busStop="7630379982" duration="30"/>
    </trip>
    <trip id="28_subway_A:0" type="pt_subway" depart="77" departLane="best" from="46340129" to="719086610#0">
        <stop busStop="6463380709" duration="30"/>
        <stop busStop="6751642217" duration="30"/>
        <stop busStop="6751622968" duration="30"/>
        <stop busStop="6923621274" duration="30"/>
        <stop busStop="6923621238" duration="30"/>
        <stop busStop="6923621199" duration="30"/>
    </trip>
    <trip id="29_subway_A:1" type="pt_subway" depart="79" departLane="best" from="741691192" to="689037414">
        <stop busStop="6923621203" duration="30"/>
        <stop busStop="6923621236" duration="30"/>
        <stop busStop="6923621277" duration="30"/>
        <stop busStop="6751642166" duration="30"/>
        <stop busStop="6751642238" duration="30"/>
        <stop busStop="6463380701" duration="30"/>
    </trip>
    <trip id="30_subway_D:0" type="pt_subway" depart="91" departLane="best" from="813712314" to="816331850">
        <stop busStop="7650206934" duration="30"/>
        <stop busStop="7657247704" duration="30"/>
        <stop busStop="7650206932" duration="30"/>
        <stop busStop="7657247698" duration="30"/>
        <stop busStop="6463379284" duration="30"/>
    </trip>
    <trip id="31_subway_D:1" type="pt_subway" depart="93" departLane="best" from="171570637" to="819186625">
        <stop busStop="6463380721" duration="30"/>
        <stop busStop="7657247700" duration="30"/>
        <stop busStop="7650206922" duration="30"/>
        <stop busStop="591997397" duration="30"/>
        <stop busStop="5350434153" duration="30"/>
    </trip>
    <trip id="32_subway_D:2" type="pt_subway" depart="98" departLane="best" from="813712314" to="816331850">
        <stop busStop="7650206934" duration="30"/>
        <stop busStop="7657247704" duration="30"/>
        <stop busStop="7650206932" duration="30"/>
        <stop busStop="7657247698" duration="30"/>
        <stop busStop="6463379284" duration="30"/>
    </trip>
    <trip id="33_subway_D:3" type="pt_subway" depart="102" departLane="best" from="171570637" to="819186625">
        <stop busStop="6463380721" duration="30"/>
        <stop busStop="7657247700" duration="30"/>
        <stop busStop="7650206922" duration="30"/>
        <stop busStop="591997397" duration="30"/>
        <stop busStop="5350434153" duration="30"/>
    </trip>
    <trip id="34_subway_E:0" type="pt_subway" depart="107" departLane="best" from="741691192" to="819186609">
        <stop busStop="6923621203" duration="30"/>
        <stop busStop="6923621236" duration="30"/>
        <stop busStop="6923621277" duration="30"/>
        <stop busStop="6751642166" duration="30"/>
        <stop busStop="7450462465" duration="30"/>
        <stop busStop="7657247699" duration="30"/>
        <stop busStop="7650207504" duration="30"/>
        <stop busStop="7650173977" duration="30"/>
    </trip>
    <trip id="35_subway_E:1" type="pt_subway" depart="114" departLane="best" from="759735515" to="719086610#0">
        <stop busStop="591998010" duration="30"/>
        <stop busStop="5407862242" duration="30"/>
        <stop busStop="7657247701" duration="30"/>
        <stop busStop="6751642215" duration="30"/>
        <stop busStop="6751622968" duration="30"/>
        <stop busStop="6923621274" duration="30"/>
        <stop busStop="6923621238" duration="30"/>
        <stop busStop="6923621199" duration="30"/>
    </trip>
    <trip id="36_subway_E:2" type="pt_subway" depart="114" departLane="best" from="759735515" to="719086610#0">
        <stop busStop="591998010" duration="30"/>
        <stop busStop="5407862242" duration="30"/>
        <stop busStop="7657247701" duration="30"/>
        <stop busStop="6751642215" duration="30"/>
        <stop busStop="6751622968" duration="30"/>
        <stop busStop="6923621274" duration="30"/>
        <stop busStop="6923621238" duration="30"/>
        <stop busStop="6923621199" duration="30"/>
    </trip>
    <trip id="37_subway_E:3" type="pt_subway" depart="119" departLane="best" from="741691192" to="819186609">
        <stop busStop="6923621203" duration="30"/>
        <stop busStop="6923621236" duration="30"/>
        <stop busStop="6923621277" duration="30"/>
        <stop busStop="6751642166" duration="30"/>
        <stop busStop="7450462465" duration="30"/>
        <stop busStop="7657247699" duration="30"/>
        <stop busStop="7650207504" duration="30"/>
        <stop busStop="7650173977" duration="30"/>
    </trip>
    <trip id="38_subway_N:0" type="pt_subway" depart="120" departLane="best" from="817383471" to="817381417">
        <stop busStop="7656750802" duration="30"/>
        <stop busStop="7656750805" duration="30"/>
        <stop busStop="7656750808" duration="30"/>
        <stop busStop="7633689337" duration="30"/>
        <stop busStop="7656750813" duration="30"/>
        <stop busStop="7633705497" duration="30"/>
        <stop busStop="7633689319" duration="30"/>
        <stop busStop="7633689324" duration="30"/>
        <stop busStop="4983147855" duration="30"/>
    </trip>
    <trip id="39_subway_N:1" type="pt_subway" depart="125" departLane="best" from="817415225" to="817383474">
        <stop busStop="7656750825" duration="30"/>
        <stop busStop="7633705521" duration="30"/>
        <stop busStop="7633705517" duration="30"/>
        <stop busStop="7633705506" duration="30"/>
        <stop busStop="7633705531" duration="30"/>
        <stop busStop="7633705534" duration="30"/>
        <stop busStop="7656750809" duration="30"/>
        <stop busStop="7656750804" duration="30"/>
        <stop busStop="4796291635" duration="30"/>
    </trip>
    <trip id="40_subway_N:2" type="pt_subway" depart="126" departLane="best" from="817383471" to="817381417">
        <stop busStop="7656750802" duration="30"/>
        <stop busStop="7656750805" duration="30"/>
        <stop busStop="7656750808" duration="30"/>
        <stop busStop="7633689337" duration="30"/>
        <stop busStop="7656750813" duration="30"/>
        <stop busStop="7633705497" duration="30"/>
        <stop busStop="7633689319" duration="30"/>
        <stop busStop="7633689324" duration="30"/>
        <stop busStop="4983147855" duration="30"/>
    </trip>
    <trip id="41_subway_Q:0" type="pt_subway" depart="127" departLane="best" from="817415225" to="817381408">
        <stop busStop="7656750825" duration="30"/>
        <stop busStop="7633705521" duration="30"/>
        <stop busStop="7633705517" duration="30"/>
        <stop busStop="7633705506" duration="30"/>
        <stop busStop="7633705531" duration="30"/>
        <stop busStop="7633705534" duration="30"/>
        <stop busStop="7656750806" duration="30"/>
        <stop busStop="7656750801" duration="30"/>
    </trip>
    <trip id="42_subway_Q:1" type="pt_subway" depart="128" departLane="best" from="46340259" to="817381417">
        <stop busStop="7656750798" duration="30"/>
        <stop busStop="7656750807" duration="30"/>
        <stop busStop="7633689337" duration="30"/>
        <stop busStop="7656750813" duration="30"/>
        <stop busStop="7633705497" duration="30"/>
        <stop busStop="7633689319" duration="30"/>
        <stop busStop="7633689324" duration="30"/>
        <stop busStop="4983147855" duration="30"/>
    </trip>
    <trip id="43_train_Harlem:0" type="pt_train" depart="131" departLane="best" from="759945015" to="759945015">
        <stop busStop="100515086" duration="30"/>
    </trip>
    <trip id="44_bus_125:0" type="pt_bus" depart="131" departLane="best" from="8028096" to="-36807212">
    </trip>
    <trip id="45_train_Hudson:0" type="pt_train" depart="132" departLane="best" from="759945015" to="759945015">
        <stop busStop="100515086" duration="30"/>
    </trip>
    <trip id="46_train_55:0" type="pt_train" depart="132" departLane="best" from="756094508" to="32965981">
        <stop busStop="6342154195" duration="30"/>
    </trip>
    <trip id="47_train_54:0" type="pt_train" depart="133" departLane="best" from="316621098" to="571475065">
        <stop busStop="6616343384" duration="30"/>
    </trip>
    <trip id="48_train_57:0" type="pt_train" depart="134" departLane="best" from="756094508" to="32965981">
        <stop busStop="6342154195" duration="30"/>
    </trip>
    <trip id="49_train_2167:0" type="pt_train" depart="136" departLane="best" from="756094508" to="32965981">
        <stop busStop="6342154195" duration="30"/>
    </trip>
    <trip id="50_train_2165:0" type="pt_train" depart="137" departLane="best" from="46493330" to="32965981">
        <stop busStop="6342154195" duration="30"/>
    </trip>
    <trip id="51_train_2170:0" type="pt_train" depart="137" departLane="best" from="316621098" to="571475065">
        <stop busStop="6616343384" duration="30"/>
    </trip>
    <trip id="52_train_2164:0" type="pt_train" depart="138" departLane="best" from="316621098" to="571475065">
        <stop busStop="6616343384" duration="30"/>
    </trip>
    <trip id="53_train_2154:0" type="pt_train" depart="139" departLane="best" from="316621098" to="571475065">
        <stop busStop="6616343384" duration="30"/>
    </trip>
    <trip id="54_train_148:0" type="pt_train" depart="142" departLane="best" from="316621098" to="571475065">
        <stop busStop="6616343384" duration="30"/>
    </trip>
    <trip id="55_train_146:0" type="pt_train" depart="147" departLane="best" from="316621098" to="571475065">
        <stop busStop="6616343384" duration="30"/>
    </trip>
    <trip id="56_train_140:0" type="pt_train" depart="149" departLane="best" from="316621098" to="571475065">
        <stop busStop="6616343384" duration="30"/>
    </trip>
    <trip id="57_train_157:0" type="pt_train" depart="149" departLane="best" from="756094508" to="32965981">
        <stop busStop="6342154195" duration="30"/>
    </trip>
    <trip id="58_train_141+143:0" type="pt_train" depart="157" departLane="best" from="756094508" to="32965981">
        <stop busStop="6342154195" duration="30"/>
    </trip>
    <trip id="59_train_176:0" type="pt_train" depart="158" departLane="best" from="316621098" to="571475065">
        <stop busStop="6616343384" duration="30"/>
    </trip>
    <trip id="60_train_66:0" type="pt_train" depart="158" departLane="best" from="316621098" to="571475065">
        <stop busStop="6616343384" duration="30"/>
    </trip>
    <trip id="61_train_96+194:0" type="pt_train" depart="159" departLane="best" from="316621098" to="571475065">
        <stop busStop="6616343384" duration="30"/>
    </trip>
    <trip id="62_train_174:0" type="pt_train" depart="160" departLane="best" from="316621098" to="571475065">
        <stop busStop="6616343384" duration="30"/>
    </trip>
    <trip id="63_train_94:0" type="pt_train" depart="160" departLane="best" from="316621098" to="571475065">
        <stop busStop="6616343384" duration="30"/>
    </trip>
    <trip id="64_train_88:0" type="pt_train" depart="160" departLane="best" from="316621098" to="571475065">
        <stop busStop="6616343384" duration="30"/>
    </trip>
    <trip id="65_train_171:0" type="pt_train" depart="165" departLane="best" from="756094508" to="32965981">
        <stop busStop="6342154195" duration="30"/>
    </trip>
    <trip id="66_train_65+67:0" type="pt_train" depart="166" departLane="best" from="756094508" to="32965981">
        <stop busStop="6342154195" duration="30"/>
    </trip>
    <trip id="67_train_99:0" type="pt_train" depart="167" departLane="best" from="756094508" to="32965981">
        <stop busStop="6342154195" duration="30"/>
    </trip>
    <trip id="68_train_93:0" type="pt_train" depart="173" departLane="best" from="756094508" to="32965981">
        <stop busStop="6342154195" duration="30"/>
    </trip>
    <trip id="69_train_178:0" type="pt_train" depart="179" departLane="best" from="316621098" to="571475065">
        <stop busStop="6616343384" duration="30"/>
    </trip>
    <trip id="70_train_172:0" type="pt_train" depart="184" departLane="best" from="316621098" to="571475065">
        <stop busStop="6616343384" duration="30"/>
    </trip>
    <trip id="71_train_170:0" type="pt_train" depart="187" departLane="best" from="316621098" to="571475065">
        <stop busStop="6616343384" duration="30"/>
    </trip>
    <trip id="72_train_168:0" type="pt_train" depart="188" departLane="best" from="316621098" to="571475065">
        <stop busStop="6616343384" duration="30"/>
    </trip>
    <trip id="73_train_166:0" type="pt_train" depart="189" departLane="best" from="316621098" to="571475065">
        <stop busStop="6616343384" duration="30"/>
    </trip>
    <trip id="74_train_164:0" type="pt_train" depart="194" departLane="best" from="316621098" to="571475065">
        <stop busStop="6616343384" duration="30"/>
    </trip>
    <trip id="75_train_162:0" type="pt_train" depart="201" departLane="best" from="316621098" to="571475065">
        <stop busStop="6616343384" duration="30"/>
    </trip>
    <trip id="76_train_86:0" type="pt_train" depart="202" departLane="best" from="316621098" to="571475065">
        <stop busStop="6616343384" duration="30"/>
    </trip>
    <trip id="77_train_195:0" type="pt_train" depart="203" departLane="best" from="756094508" to="32965981">
        <stop busStop="6342154195" duration="30"/>
    </trip>
    <trip id="78_train_175:0" type="pt_train" depart="204" departLane="best" from="756094508" to="32965981">
        <stop busStop="6342154195" duration="30"/>
    </trip>
    <trip id="79_train_173:0" type="pt_train" depart="218" departLane="best" from="756094508" to="32965981">
        <stop busStop="6342154195" duration="30"/>
    </trip>
    <trip id="80_train_167:0" type="pt_train" depart="222" departLane="best" from="756094508" to="32965981">
        <stop busStop="6342154195" duration="30"/>
    </trip>
    <trip id="81_train_165:0" type="pt_train" depart="227" departLane="best" from="756094508" to="32965981">
        <stop busStop="6342154195" duration="30"/>
    </trip>
    <trip id="82_train_161:0" type="pt_train" depart="227" departLane="best" from="756094508" to="32965981">
        <stop busStop="6342154195" duration="30"/>
    </trip>
    <trip id="83_train_139:0" type="pt_train" depart="228" departLane="best" from="756094508" to="32965981">
        <stop busStop="6342154195" duration="30"/>
    </trip>
    <trip id="84_train_137:0" type="pt_train" depart="237" departLane="best" from="756094508" to="32965981">
        <stop busStop="6342154195" duration="30"/>
    </trip>
    <trip id="85_train_135:0" type="pt_train" depart="239" departLane="best" from="756094508" to="32965981">
        <stop busStop="6342154195" duration="30"/>
    </trip>
    <trip id="86_bus_Q32:0" type="pt_bus" depart="241" departLane="best" from="484170269#0" to="32947292#1">
        <stop busStop="4769084859" duration="30"/>
        <stop busStop="4770624019" duration="30"/>
        <stop busStop="4796291645" duration="30"/>
        <stop busStop="4796291639" duration="30"/>
        <stop busStop="6177439758" duration="30"/>
        <stop busStop="4798293331" duration="30"/>
        <stop busStop="4960503202" duration="30"/>
        <stop busStop="4960503203" duration="30"/>
        <stop busStop="4960503206" duration="30"/>
        <stop busStop="4960503208" duration="30"/>
        <stop busStop="4960516267" duration="30"/>
        <stop busStop="4960516269" duration="30"/>
        <stop busStop="4960516271" duration="30"/>
        <stop busStop="4960516272" duration="30"/>
        <stop busStop="4960516273" duration="30"/>
        <stop busStop="4960516275" duration="30"/>
        <stop busStop="4960516277" duration="30"/>
        <stop busStop="4960527241" duration="30"/>
        <stop busStop="4960527243" duration="30"/>
        <stop busStop="4960527245" duration="30"/>
        <stop busStop="4960527247" duration="30"/>
        <stop busStop="4960527249" duration="30"/>
        <stop busStop="6186989597" duration="30"/>
        <stop busStop="6186989601" duration="30"/>
    </trip>
    <trip id="87_bus_M12:0" type="pt_bus" depart="253" departLane="best" from="308322448#1" to="421852041">
        <stop busStop="3913758293" duration="30"/>
        <stop busStop="4782363328" duration="30"/>
        <stop busStop="4782363326" duration="30"/>
        <stop busStop="4782404432" duration="30"/>
    </trip>
    <trip id="88_bus_M11:0" type="pt_bus" depart="253" departLane="best" from="420892264" to="195834894#1">
        <stop busStop="3913758293" duration="30"/>
        <stop busStop="3913756003" duration="30"/>
        <stop busStop="3913754635" duration="30"/>
    </trip>
    <trip id="89_bus_M42:0" type="pt_bus" depart="253" departLane="best" from="46469724#1" to="989261433">
        <stop busStop="3679455264" duration="30"/>
        <stop busStop="-3679438746" duration="30"/>
        <stop busStop="3679438201" duration="30"/>
        <stop busStop="3679437133" duration="30"/>
        <stop busStop="3679433462" duration="30"/>
        <stop busStop="3679423001" duration="30"/>
        <stop busStop="3679406934" duration="30"/>
        <stop busStop="3679396691" duration="30"/>
        <stop busStop="3679394774" duration="30"/>
        <stop busStop="3679391773" duration="30"/>
        <stop busStop="3679387948" duration="30"/>
        <stop busStop="-3679372930" duration="30"/>
        <stop busStop="-3679366525" duration="30"/>
        <stop busStop="-3679360604" duration="30"/>
        <stop busStop="-3679357885" duration="30"/>
        <stop busStop="3679458105" duration="30"/>
    </trip>
    <trip id="90_bus_M23_SBS:0" type="pt_bus" depart="253" departLane="best" from="22904005" to="428569357">
        <stop busStop="8378777761" duration="30"/>
        <stop busStop="-8378777752" duration="30"/>
        <stop busStop="4763900911" duration="30"/>
        <stop busStop="4763900912" duration="30"/>
    </trip>
    <trip id="91_bus_M4:0" type="pt_bus" depart="254" departLane="best" from="464543615#0" to="195743183#6">
        <stop busStop="4769084859" duration="30"/>
        <stop busStop="4770624019" duration="30"/>
        <stop busStop="4769084858" duration="30"/>
    </trip>
    <trip id="92_bus_M5:0" type="pt_bus" depart="258" departLane="best" from="46490538#0" to="-195743152#0">
        <stop busStop="4796245033" duration="30"/>
        <stop busStop="4796245036" duration="30"/>
        <stop busStop="4796245037" duration="30"/>
        <stop busStop="4769084861" duration="30"/>
        <stop busStop="4769084860" duration="30"/>
    </trip>
    <trip id="93_bus_M7:0" type="pt_bus" depart="260" departLane="best" from="196117073#0" to="719105674#0">
        <stop busStop="4796245036" duration="30"/>
        <stop busStop="4796245037" duration="30"/>
    </trip>
    <trip id="94_bus_M31:0" type="pt_bus" depart="262" departLane="best" from="195743211" to="421851200#1">
        <stop busStop="-4794775935" duration="30"/>
        <stop busStop="-4794775932" duration="30"/>
    </trip>
    <trip id="95_bus_M57:0" type="pt_bus" depart="265" departLane="best" from="-421851200#1" to="196117084#2">
        <stop busStop="4794775932" duration="30"/>
        <stop busStop="4794775935" duration="30"/>
    </trip>
    <trip id="96_bus_M50:0" type="pt_bus" depart="269" departLane="best" from="584971497#0" to="169269031#1">
        <stop busStop="3679458105" duration="30"/>
        <stop busStop="4782363328" duration="30"/>
        <stop busStop="4782363326" duration="30"/>
        <stop busStop="4782404432" duration="30"/>
        <stop busStop="4782404431" duration="30"/>
        <stop busStop="4782404430" duration="30"/>
        <stop busStop="4782404428" duration="30"/>
        <stop busStop="4782404429" duration="30"/>
        <stop busStop="4782404427" duration="30"/>
        <stop busStop="4782404426" duration="30"/>
        <stop busStop="4782404425" duration="30"/>
        <stop busStop="4782404424" duration="30"/>
        <stop busStop="4782404423" duration="30"/>
        <stop busStop="4782363330" duration="30"/>
        <stop busStop="4782363329" duration="30"/>
        <stop busStop="4782442668" duration="30"/>
        <stop busStop="4782442665" duration="30"/>
        <stop busStop="4782442664" duration="30"/>
        <stop busStop="4782442663" duration="30"/>
        <stop busStop="4782442661" duration="30"/>
        <stop busStop="4782442659" duration="30"/>
        <stop busStop="4782442658" duration="30"/>
        <stop busStop="4782543122" duration="30"/>
    </trip>
    <trip id="97_bus_M66:0" type="pt_bus" depart="272" departLane="best" from="968393473#0" to="945384088#5">
        <stop busStop="3278932320" duration="30"/>
    </trip>
    <trip id="98_bus_M101:0" type="pt_bus" depart="275" departLane="best" from="814612602#0" to="497251086#2">
        <stop busStop="4798293332" duration="30"/>
    </trip>
    <trip id="99_bus_M102:0" type="pt_bus" depart="280" departLane="best" from="814612602#0" to="497251086#2">
        <stop busStop="4798293332" duration="30"/>
    </trip>
    <trip id="100_bus_M103:0" type="pt_bus" depart="283" departLane="best" from="814612602#0" to="497251086#2">
        <stop busStop="4798293332" duration="30"/>
    </trip>
    <trip id="101_bus_M14A_SBS:0" type="pt_bus" depart="285" departLane="best" from="-666752576#2" to="474635904#1">
        <stop busStop="3913758293@12382566" duration="30"/>
    </trip>
    <trip id="102_bus_M14D_SBS:0" type="pt_bus" depart="291" departLane="best" from="-666752576#2" to="992132287#0">
        <stop busStop="3913758293@12382567" duration="30"/>
    </trip>
    <trip id="103_bus_M34A_SBS:0" type="pt_bus" depart="300" departLane="best" from="194926855" to="620680161#1">
        <stop busStop="-4770624020" duration="30"/>
        <stop busStop="4770628022" duration="30"/>
        <stop busStop="4770628023" duration="30"/>
    </trip>
    <trip id="104_bus_M34_SBS:0" type="pt_bus" depart="303" departLane="best" from="46201649" to="-46481754#0">
        <stop busStop="-4770628023" duration="30"/>
        <stop busStop="4770624020" duration="30"/>
        <stop busStop="-4770628022" duration="30"/>
    </trip>
    <trip id="105_train_New_Haven:0" type="pt_train" depart="305" departLane="best" from="759945015" to="759945015">
        <stop busStop="100515086" duration="30"/>
    </trip>
    <trip id="106_train_56:0" type="pt_train" depart="310" departLane="best" from="316621098" to="571475065">
        <stop busStop="6616343384" duration="30"/>