<?xml version="1.0" encoding="UTF-8"?>

<!-- generated on 2021-10-23 22:25:29 by Eclipse SUMO duarouter Version 1.10.0
<configuration xmlns:xsi="http://www.w3.org/2001/XMLSchema-instance" xsi:noNamespaceSchemaLocation="http://sumo.dlr.de/xsd/duarouterConfiguration.xsd">

    <input>
        <net-file value="C:\Users\diani\Sumo\2021-10-23-22-23-54\osm.net.xml"/>
        <route-files value="C:\Users\diani\Sumo\2021-10-23-22-23-54\osm.passenger.trips.xml"/>
    </input>

    <output>
        <output-file value="C:\Users\diani\Sumo\2021-10-23-22-23-54\osm.passenger.trips.xml.tmp"/>
        <write-trips value="true"/>
    </output>

    <time>
        <begin value="0"/>
        <end value="3600"/>
    </time>

    <report>
        <no-warnings value="true"/>
        <ignore-errors value="true"/>
        <no-step-log value="true"/>
    </report>

</configuration>
-->

<routes xmlns:xsi="http://www.w3.org/2001/XMLSchema-instance" xsi:noNamespaceSchemaLocation="http://sumo.dlr.de/xsd/routes_file.xsd">
    <vType id="veh_passenger" vClass="passenger"/>
    <trip id="veh0" type="veh_passenger" depart="0.00" departLane="best" from="542257008#1" to="-420904618#1"/>
    <trip id="veh1" type="veh_passenger" depart="0.46" departLane="best" from="379843699" to="308322431#2"/>
    <trip id="veh2" type="veh_passenger" depart="0.92" departLane="best" from="587038101" to="5671415#0"/>
    <trip id="veh3" type="veh_passenger" depart="1.38" departLane="best" from="852992111#1" to="127693383#2"/>
    <trip id="veh4" type="veh_passenger" depart="1.85" departLane="best" from="453367786#1" to="-438382685#1"/>
    <trip id="veh5" type="veh_passenger" depart="2.31" departLane="best" from="22914180#1" to="464683329#1"/>
    <trip id="veh6" type="veh_passenger" depart="2.77" departLane="best" departSpeed="max" from="-420894367#1" to="226041027#1"/>
    <trip id="veh7" type="veh_passenger" depart="3.23" departLane="best" departSpeed="max" from="5669566" to="46522003"/>
    <trip id="veh8" type="veh_passenger" depart="3.69" departLane="best" from="22941923#0" to="497165753#2"/>
    <trip id="veh9" type="veh_passenger" depart="4.15" departLane="best" from="68674961#2" to="-195743208#3"/>
    <trip id="veh10" type="veh_passenger" depart="4.62" departLane="best" from="68668540#1" to="5672760#0"/>
    <trip id="veh11" type="veh_passenger" depart="5.08" departLane="best" from="420872212" to="195743345"/>
    <trip id="veh12" type="veh_passenger" depart="5.54" departLane="best" from="968513231" to="420894338#3"/>
    <trip id="veh13" type="veh_passenger" depart="6.00" departLane="best" from="127693200#0" to="167922072#3"/>
    <trip id="veh14" type="veh_passenger" depart="6.46" departLane="best" from="68668556" to="584971501"/>
    <trip id="veh15" type="veh_passenger" depart="6.92" departLane="best" from="46492007" to="988977547#14"/>
    <trip id="veh16" type="veh_passenger" depart="7.38" departLane="best" from="420904618#1" to="46525065#2"/>
    <trip id="veh18" type="veh_passenger" depart="8.31" departLane="best" from="808055023#1" to="496986803#10"/>
    <trip id="veh19" type="veh_passenger" depart="8.77" departLane="best" from="5672951#4" to="-496986969#0"/>
    <trip id="veh20" type="veh_passenger" depart="9.23" departLane="best" from="308322431#0" to="388240124#3"/>
    <trip id="veh21" type="veh_passenger" depart="9.69" departLane="best" from="-809013919#1" to="32939224#1"/>
    <trip id="veh22" type="veh_passenger" depart="10.15" departLane="best" from="157014137#1" to="384178816#0"/>
    <trip id="veh23" type="veh_passenger" depart="10.62" departLane="best" from="542096278#2" to="420903239#0"/>
    <trip id="veh24" type="veh_passenger" depart="11.08" departLane="best" from="420901921#0" to="22904055#1"/>
    <trip id="veh25" type="veh_passenger" depart="11.54" departLane="best" from="36806906#1" to="962626218#0"/>
    <trip id="veh26" type="veh_passenger" depart="12.00" departLane="best" departSpeed="max" from="5669004" to="506680905"/>
    <trip id="veh27" type="veh_passenger" depart="12.46" departLane="best" from="196116976#10" to="584971399"/>
    <trip id="veh28" type="veh_passenger" depart="12.92" departLane="best" from="195743339#1" to="420908131"/>
    <trip id="veh29" type="veh_passenger" depart="13.38" departLane="best" from="989793293#1" to="5669002#0"/>
    <trip id="veh31" type="veh_passenger" depart="14.31" departLane="best" from="747908051#0" to="664660185"/>
    <trip id="veh32" type="veh_passenger" depart="14.77" departLane="best" from="308322446#1" to="-458106348#0"/>
    <trip id="veh33" type="veh_passenger" depart="15.23" departLane="best" from="420276996#1" to="375316256"/>
    <trip id="veh34" type="veh_passenger" depart="15.69" departLane="best" from="226041031" to="963575586#1"/>
    <trip id="veh35" type="veh_passenger" depart="16.15" departLane="best" from="814278019#3" to="420519635#0"/>
    <trip id="veh36" type="veh_passenger" depart="16.62" departLane="best" from="5670029#1" to="428569470#0"/>
    <trip id="veh37" type="veh_passenger" depart="17.08" departLane="best" from="935228363" to="458180196"/>
    <trip id="veh38" type="veh_passenger" depart="17.54" departLane="best" from="36806661#2" to="348477348#2"/>
    <trip id="veh39" type="veh_passenger" depart="18.00" departLane="best" from="46538382" to="368938760#0"/>
    <trip id="veh40" type="veh_passenger" depart="18.46" departLane="best" from="496986803#15" to="847994494#9"/>
    <trip id="veh41" type="veh_passenger" depart="18.92" departLane="best" from="421852041" to="273019810#4"/>
    <trip id="veh42" type="veh_passenger" depart="19.38" departLane="best" departSpeed="max" from="993368839#0" to="46469723"/>
    <trip id="veh43" type="veh_passenger" depart="19.85" departLane="best" from="125480075" to="-497165757#1"/>
    <trip id="veh44" type="veh_passenger" depart="20.31" departLane="best" from="169267539#0" to="541350711#1"/>
    <trip id="veh46" type="veh_passenger" depart="21.23" departLane="best" from="-5671801#1" to="420908138#0"/>
    <trip id="veh48" type="veh_passenger" depart="22.15" departLane="best" from="988977547#13" to="788602263#2"/>
    <trip id="veh49" type="veh_passenger" depart="22.62" departLane="best" from="-22904155#1" to="569345539"/>
    <trip id="veh50" type="veh_passenger" depart="23.08" departLane="best" from="36806906#0" to="5669221"/>
    <trip id="veh51" type="veh_passenger" depart="23.54" departLane="best" from="169267541#1" to="458166897#13"/>
    <trip id="veh52" type="veh_passenger" depart="24.00" departLane="best" from="458166897#7" to="968394453"/>
    <trip id="veh53" type="veh_passenger" depart="24.46" departLane="best" from="814278019#0" to="368938761#1"/>
    <trip id="veh54" type="veh_passenger" depart="24.92" departLane="best" from="46443597#1" to="222299258#2"/>
    <trip id="veh55" type="veh_passenger" depart="25.38" departLane="best" departSpeed="max" from="907627764#0" to="808190576"/>
    <trip id="veh56" type="veh_passenger" depart="25.85" departLane="best" from="388240124#16" to="554083353#2"/>
    <trip id="veh57" type="veh_passenger" depart="26.31" departLane="best" from="500182596" to="195743342#4"/>
    <trip id="veh58" type="veh_passenger" depart="26.77" departLane="best" from="628093103#1" to="46520833#1"/>
    <trip id="veh59" type="veh_passenger" depart="27.23" departLane="best" from="670988060#0" to="46492009"/>
    <trip id="veh60" type="veh_passenger" depart="27.69" departLane="best" from="-139919706#0" to="420872177#0"/>
    <trip id="veh61" type="veh_passenger" depart="28.15" departLane="best" from="-37182106#4" to="945460473"/>
    <trip id="veh62" type="veh_passenger" depart="28.62" departLane="best" from="819074878" to="709355577#3"/>
    <trip id="veh63" type="veh_passenger" depart="29.08" departLane="best" from="396444294#11" to="-5671801#2"/>
    <trip id="veh64" type="veh_passenger" depart="29.54" departLane="best" from="818182930#0" to="965833822#12"/>
    <trip id="veh65" type="veh_passenger" depart="30.00" departLane="best" from="118400729#5" to="46419222#1"/>
    <trip id="veh66" type="veh_passenger" depart="30.46" departLane="best" from="-584971528#0" to="626739792#1"/>
    <trip id="veh67" type="veh_passenger" depart="30.92" departLane="best" from="630828584" to="194926851#2"/>
    <trip id="veh68" type="veh_passenger" depart="31.38" departLane="best" from="460065822#0" to="46525019#0"/>
    <trip id="veh69" type="veh_passenger" depart="31.85" departLane="best" from="36806680#1" to="808190584#1"/>
    <trip id="veh70" type="veh_passenger" depart="32.31" departLane="best" from="453367786#5" to="22909152#1"/>
    <trip id="veh71" type="veh_passenger" depart="32.77" departLane="best" from="465098271" to="584971501"/>
    <trip id="veh72" type="veh_passenger" depart="33.23" departLane="best" from="226041005#3" to="420499932#0"/>
    <trip id="veh73" type="veh_passenger" depart="33.69" departLane="best" from="992144532#1" to="5670029#9"/>
    <trip id="veh74" type="veh_passenger" depart="34.15" departLane="best" from="458166896#1" to="46481095#9"/>
    <trip id="veh75" type="veh_passenger" depart="34.62" departLane="best" from="194920158#10" to="308322447#5"/>
    <trip id="veh76" type="veh_passenger" depart="35.08" departLane="best" from="420872194#0" to="497165753#0"/>
    <trip id="veh77" type="veh_passenger" depart="35.54" departLane="best" from="308322447#4" to="273019814#3"/>
    <trip id="veh78" type="veh_passenger" depart="36.00" departLane="best" from="308322446#1" to="871725893#6"/>
    <trip id="veh79" type="veh_passenger" depart="36.46" departLane="best" from="803024464#0" to="-809013919#0"/>
    <trip id="veh80" type="veh_passenger" depart="36.92" departLane="best" from="32939046#1" to="5671056#2"/>
    <trip id="veh81" type="veh_passenger" depart="37.38" departLane="best" from="226092573#1" to="194926854#3"/>
    <trip id="veh82" type="veh_passenger" depart="37.85" departLane="best" from="963567032" to="485556247#1"/>
    <trip id="veh83" type="veh_passenger" depart="38.31" departLane="best" from="458180199#4" to="681042531#0"/>
    <trip id="veh85" type="veh_passenger" depart="39.23" departLane="best" from="139919706#1" to="458166897#0"/>
    <trip id="veh86" type="veh_passenger" depart="39.69" departLane="best" from="455122830#1" to="460585328#3"/>
    <trip id="veh87" type="veh_passenger" depart="40.15" departLane="best" from="569345545" to="5671192#5"/>
    <trip id="veh88" type="veh_passenger" depart="40.61" departLane="best" from="989267825#3" to="167922073#0"/>
    <trip id="veh89" type="veh_passenger" depart="41.08" departLane="best" from="421853646#1" to="420894352#7"/>
    <trip id="veh90" type="veh_passenger" depart="41.54" departLane="best" from="808055023#1" to="350726028#10"/>
    <trip id="veh91" type="veh_passenger" depart="42.00" departLane="best" from="222299276#6" to="458180182#0"/>
    <trip id="veh92" type="veh_passenger" depart="42.46" departLane="best" from="453367786#1" to="384178816#1"/>
    <trip id="veh93" type="veh_passenger" depart="42.92" departLane="best" from="34625463#3" to="936539648#3"/>
    <trip id="veh94" type="veh_passenger" depart="43.38" departLane="best" from="458166897#1" to="789634640#1"/>
    <trip id="veh95" type="veh_passenger" depart="43.85" departLane="best" from="46522003" to="-542096278#2"/>
    <trip id="veh96" type="veh_passenger" depart="44.31" departLane="best" from="993368839#5" to="710571392#6"/>
    <trip id="veh97" type="veh_passenger" depart="44.77" departLane="best" from="988977540" to="939613203"/>
    <trip id="veh98" type="veh_passenger" depart="45.23" departLane="best" from="771759764#1" to="196117090#7"/>
    <trip id="veh99" type="veh_passenger" depart="45.69" departLane="best" from="46201630#3" to="22914181"/>
    <trip id="veh100" type="veh_passenger" depart="46.15" departLane="best" from="420904620" to="989267825#1"/>
    <trip id="veh101" type="veh_passenger" depart="46.61" departLane="best" from="36806680#1" to="671208359"/>
    <trip id="veh102" type="veh_passenger" depart="47.08" departLane="best" from="458166897#9" to="458166892#0"/>
    <trip id="veh103" type="veh_passenger" depart="47.54" departLane="best" from="968513231" to="992144531#4"/>
    <trip id="veh104" type="veh_passenger" depart="48.00" departLane="best" from="46525029#2" to="569345537#0"/>
    <trip id="veh105" type="veh_passenger" depart="48.46" departLane="best" from="195743183#3" to="396444294#17"/>
    <trip id="veh106" type="veh_passenger" depart="48.92" departLane="best" from="988956477" to="496986803#17"/>
    <trip id="veh107" type="veh_passenger" depart="49.38" departLane="best" from="46518731#8" to="597821267#2"/>
    <trip id="veh108" type="veh_passenger" depart="49.85" departLane="best" from="-511699183#3" to="496989355#0"/>
    <trip id="veh109" type="veh_passenger" depart="50.31" departLane="best" from="46443656#11" to="767683112#1"/>
    <trip id="veh110" type="veh_passenger" depart="50.77" departLane="best" from="195743185#4" to="974611015#1"/>
    <trip id="veh111" type="veh_passenger" depart="51.23" departLane="best" from="-825236402" to="226040997#4"/>
    <trip id="veh112" type="veh_passenger" depart="51.69" departLane="best" from="497165753#1" to="5671349#1"/>
    <trip id="veh113" type="veh_passenger" depart="52.15" departLane="best" from="324118557#0" to="194923801#1"/>
    <trip id="veh114" type="veh_passenger" depart="52.61" departLane="best" from="852992100#0" to="34769546#0"/>
    <trip id="veh115" type="veh_passenger" depart="53.08" departLane="best" from="497165753#0" to="525729010#4"/>
    <trip id="veh116" type="veh_passenger" depart="53.54" departLane="best" from="448686048#0" to="496986970#2"/>
    <trip id="veh117" type="veh_passenger" depart="54.00" departLane="best" from="46481095#5" to="954929768#0"/>
    <trip id="veh118" type="veh_passenger" depart="54.46" departLane="best" from="226041012#2" to="569345515#5"/>
    <trip id="veh119" type="veh_passenger" depart="54.92" departLane="best" from="32939224#1" to="428569470#2"/>
    <trip id="veh120" type="veh_passenger" depart="55.38" departLane="best" departSpeed="max" from="5670891#0" to="396444295#8"/>
    <trip id="veh121" type="veh_passenger" depart="55.85" departLane="best" from="420281338" to="618990022#12"/>
    <trip id="veh122" type="veh_passenger" depart="56.31" departLane="best" departSpeed="max" from="-661227257#14" to="458180194"/>
    <trip id="veh123" type="veh_passenger" depart="56.77" departLane="best" departSpeed="max" from="993368839#0" to="992144531#5"/>
    <trip id="veh124" type="veh_passenger" depart="57.23" departLane="best" departSpeed="max" from="-661227257#14" to="22914180#1"/>
    <trip id="veh125" type="veh_passenger" depart="57.69" departLane="best" from="36806680#1" to="954659191"/>
    <trip id="veh126" type="veh_passenger" depart="58.15" departLane="best" from="835176554#3" to="813727586"/>
    <trip id="veh127" type="veh_passenger" depart="58.61" departLane="best" from="420901920#2" to="196116976#1"/>
    <trip id="veh128" type="veh_passenger" depart="59.08" departLane="best" from="717625447#4" to="5673171#1"/>
    <trip id="veh129" type="veh_passenger" depart="59.54" departLane="best" departSpeed="max" from="505776502" to="989267828#0"/>
    <trip id="veh130" type="veh_passenger" depart="60.00" departLane="best" from="5669881#6" to="-196117075#3"/>
    <trip id="veh131" type="veh_passenger" depart="60.46" departLane="best" from="68674962#38" to="396444295#5"/>
    <trip id="veh132" type="veh_passenger" depart="60.92" departLane="best" from="5670466" to="962831194"/>
    <trip id="veh133" type="veh_passenger" depart="61.38" departLane="best" departSpeed="max" from="194923807#0" to="194923795#2"/>
    <trip id="veh134" type="veh_passenger" depart="61.85" departLane="best" from="167922073#1" to="46525065#7"/>
    <trip id="veh135" type="veh_passenger" depart="62.31" departLane="best" from="375165501" to="505034229"/>
    <trip id="veh136" type="veh_passenger" depart="62.77" departLane="best" from="569345499#2" to="226041041"/>
    <trip id="veh137" type="veh_passenger" depart="63.23" departLane="best" from="541350711#0" to="368938762#1"/>
    <trip id="veh138" type="veh_passenger" depart="63.69" departLane="best" from="46240204" to="871725893#3"/>
    <trip id="veh139" type="veh_passenger" depart="64.15" departLane="best" from="767683112#0" to="156994955"/>
    <trip id="veh140" type="veh_passenger" depart="64.61" departLane="best" from="455122830#1" to="384178812#1"/>
    <trip id="veh141" type="veh_passenger" depart="65.08" departLane="best" from="-167922072#5" to="658583343#1"/>
    <trip id="veh143" type="veh_passenger" depart="66.00" departLane="best" from="587061856#17" to="46525065#1"/>
    <trip id="veh144" type="veh_passenger" depart="66.46" departLane="best" from="457948936" to="-252227354#0"/>
    <trip id="veh145" type="veh_passenger" depart="66.92" departLane="best" from="-68325079" to="814278018#5"/>
    <trip id="veh146" type="veh_passenger" depart="67.38" departLane="best" from="884400297" to="46522006#0"/>
    <trip id="veh147" type="veh_passenger" depart="67.85" departLane="best" from="717634370#0" to="496986969#0"/>
    <trip id="veh148" type="veh_passenger" depart="68.31" departLane="best" from="194926854#6" to="194926851#0"/>
    <trip id="veh149" type="veh_passenger" depart="68.77" departLane="best" from="396444294#15" to="852992102#4"/>
    <trip id="veh150" type="veh_passenger" depart="69.23" departLane="best" from="686125782#15" to="788602263#1"/>
    <trip id="veh151" type="veh_passenger" depart="69.69" departLane="best" from="884400281" to="22904149#1"/>
    <trip id="veh152" type="veh_passenger" depart="70.15" departLane="best" from="34625463#3" to="169267541#1"/>
    <trip id="veh153" type="veh_passenger" depart="70.61" departLane="best" from="671202178#0" to="814278019#11"/>
    <trip id="veh154" type="veh_passenger" depart="71.08" departLane="best" from="438382685#1" to="525729010#8"/>
    <trip id="veh155" type="veh_passenger" depart="71.54" departLane="best" from="195743183#3" to="95181769#0"/>
    <trip id="veh156" type="veh_passenger" depart="72.00" departLane="best" from="808190584#0" to="988987061#2"/>
    <trip id="veh157" type="veh_passenger" depart="72.46" departLane="best" departSpeed="max" from="68674962#0" to="813970417"/>
    <trip id="veh158" type="veh_passenger" depart="72.92" departLane="best" from="-420894362#1" to="587061856#14"/>
    <trip id="veh159" type="veh_passenger" depart="73.38" departLane="best" from="420598366#0" to="954520388#1"/>
    <trip id="veh160" type="veh_passenger" depart="73.85" departLane="best" from="686125790#0" to="802292178#0"/>
    <trip id="veh161" type="veh_passenger" depart="74.31" departLane="best" departSpeed="max" from="68674962#0" to="375165665"/>
    <trip id="veh162" type="veh_passenger" depart="74.77" departLane="best" from="682359029#1" to="169383518#1"/>
    <trip id="veh164" type="veh_passenger" depart="75.69" departLane="best" from="252227354#1" to="68674961#3"/>
    <trip id="veh165" type="veh_passenger" depart="76.15" departLane="best" from="458180183" to="420356169#0"/>
    <trip id="veh166" type="veh_passenger" depart="76.61" departLane="best" from="686125782#14" to="320888292"/>
    <trip id="veh167" type="veh_passenger" depart="77.08" departLane="best" from="-420872204" to="226041007#1"/>
    <trip id="veh168" type="veh_passenger" depart="77.54" departLane="best" from="420598332" to="802292178#1"/>
    <trip id="veh169" type="veh_passenger" depart="78.00" departLane="best" from="986615542" to="384649120#2"/>
    <trip id="veh170" type="veh_passenger" depart="78.46" departLane="best" from="542258060" to="438385431#4"/>
    <trip id="veh171" type="veh_passenger" depart="78.92" departLane="best" from="989265273#1" to="46518731#8"/>
    <trip id="veh172" type="veh_passenger" depart="79.38" departLane="best" from="988977547#1" to="222299258#2"/>
    <trip id="veh173" type="veh_passenger" depart="79.85" departLane="best" from="978066034" to="375165501"/>
    <trip id="veh174" type="veh_passenger" depart="80.31" departLane="best" from="167922077" to="458166897#12"/>
    <trip id="veh175" type="veh_passenger" depart="80.77" departLane="best" from="569345545" to="420514148#1"/>
    <trip id="veh176" type="veh_passenger" depart="81.23" departLane="best" from="499172074#1" to="46469726#1"/>
    <trip id="veh177" type="veh_passenger" depart="81.69" departLane="best" from="420907903" to="496983399#0"/>
    <trip id="veh178" type="veh_passenger" depart="82.15" departLane="best" from="350726028#1" to="5673515#0"/>
    <trip id="veh179" type="veh_passenger" depart="82.61" departLane="best" departSpeed="max" from="-154716101#1" to="939444709#0"/>
    <trip id="veh180" type="veh_passenger" depart="83.08" departLane="best" from="465000799" to="569345537#6"/>
    <trip id="veh181" type="veh_passenger" depart="83.54" departLane="best" from="587061858#1" to="5671115#1"/>
    <trip id="veh182" type="veh_passenger" depart="84.00" departLane="best" from="420901682#0" to="-802292178#1"/>
    <trip id="veh183" type="veh_passenger" depart="84.46" departLane="best" from="5670719#12" to="420890024"/>
    <trip id="veh184" type="veh_passenger" depart="84.92" departLane="best" from="397795464#1" to="743358443#1"/>
    <trip id="veh185" type="veh_passenger" depart="85.38" departLane="best" from="569345515#0" to="396444295#9"/>
    <trip id="veh186" type="veh_passenger" depart="85.85" departLane="best" from="396444294#7" to="447001271#2"/>
    <trip id="veh187" type="veh_passenger" depart="86.31" departLane="best" from="421853646#1" to="396444294#11"/>
    <trip id="veh188" type="veh_passenger" depart="86.77" departLane="best" from="963588773" to="5671425#0"/>
    <trip id="veh189" type="veh_passenger" depart="87.23" departLane="best" from="884400293#2" to="518451327#0"/>
    <trip id="veh190" type="veh_passenger" depart="87.69" departLane="best" from="388240124#3" to="46522008#9"/>
    <trip id="veh191" type="veh_passenger" depart="88.15" departLane="best" from="-116672333#2" to="388240124#16"/>
    <trip id="veh192" type="veh_passenger" depart="88.61" departLane="best" from="458106345#4" to="496986803#5"/>
    <trip id="veh193" type="veh_passenger" depart="89.08" departLane="best" from="5669975#1" to="460069727#1"/>
    <trip id="veh194" type="veh_passenger" depart="89.54" departLane="best" from="458166897#0" to="22914181"/>
    <trip id="veh195" type="veh_passenger" depart="90.00" departLane="best" from="458180199#6" to="852992107"/>
    <trip id="veh196" type="veh_passenger" depart="90.46" departLane="best" from="686125782#15" to="198595470"/>
    <trip id="veh197" type="veh_passenger" depart="90.92" departLane="best" from="118400729#1" to="46481095#5"/>
    <trip id="veh198" type="veh_passenger" depart="91.38" departLane="best" from="541331485" to="420892275"/>
    <trip id="veh199" type="veh_passenger" depart="91.85" departLane="best" from="68674962#41" to="618990022#0"/>
    <trip id="veh200" type="veh_passenger" depart="92.31" departLane="best" from="5670938#0" to="308322447#5"/>
    <trip id="veh201" type="veh_passenger" depart="92.77" departLane="best" from="226041001#8" to="-420900705#1"/>
    <trip id="veh202" type="veh_passenger" depart="93.23" departLane="best" departSpeed="max" from="33117932" to="46201647#0"/>
    <trip id="veh203" type="veh_passenger" depart="93.69" departLane="best" from="771759768" to="-95181769#1"/>
    <trip id="veh204" type="veh_passenger" depart="94.15" departLane="best" from="439933933" to="542096279#2"/>
    <trip id="veh205" type="veh_passenger" depart="94.61" departLane="best" from="226040997#3" to="5672524#9"/>
    <trip id="veh206" type="veh_passenger" depart="95.08" departLane="best" from="46334598#2" to="346613529#13"/>
    <trip id="veh207" type="veh_passenger" depart="95.54" departLane="best" from="5670029#7" to="-195743152#0"/>
    <trip id="veh208" type="veh_passenger" depart="96.00" departLane="best" from="600848479#4" to="658583340#4"/>
    <trip id="veh209" type="veh_passenger" depart="96.46" departLane="best" from="167922072#7" to="458166894#0"/>
    <trip id="veh210" type="veh_passenger" depart="96.92" departLane="best" from="196117075#1" to="968513228"/>
    <trip id="veh211" type="veh_passenger" depart="97.38" departLane="best" from="46469724#2" to="-542096278#1"/>
    <trip id="veh212" type="veh_passenger" depart="97.85" departLane="best" from="34625463#2" to="743358444#1"/>
    <trip id="veh213" type="veh_passenger" depart="98.31" departLane="best" from="458177128#2" to="686125790#0"/>
    <trip id="veh214" type="veh_passenger" depart="98.77" departLane="best" from="5670818#1" to="989267828#1"/>
    <trip id="veh215" type="veh_passenger" depart="99.23" departLane="best" from="497165753#2" to="968393473#6"/>
    <trip id="veh216" type="veh_passenger" depart="99.69" departLane="best" from="852992107" to="511699184#0"/>
    <trip id="veh217" type="veh_passenger" depart="100.15" departLane="best" from="569345508#0" to="464683329#0"/>
    <trip id="veh219" type="veh_passenger" depart="101.08" departLane="best" from="873372086" to="588157337#0"/>
    <trip id="veh220" type="veh_passenger" depart="101.54" departLane="best" from="460065821#0" to="36806661#2"/>
    <trip id="veh221" type="veh_passenger" depart="102.00" departLane="best" from="34080508#1" to="554083352#0"/>
    <trip id="veh222" type="veh_passenger" depart="102.46" departLane="best" from="630828583" to="46481747#1"/>
    <trip id="veh223" type="veh_passenger" depart="102.92" departLane="best" from="525729010#6" to="381565180#0"/>
    <trip id="veh224" type="veh_passenger" depart="103.38" departLane="best" departSpeed="max" from="-699843297" to="387128267#21"/>
    <trip id="veh226" type="veh_passenger" depart="104.31" departLane="best" from="465098285" to="195743167#8"/>
    <trip id="veh227" type="veh_passenger" depart="104.77" departLane="best" from="31984130#1" to="5672501#0"/>
    <trip id="veh228" type="veh_passenger" depart="105.23" departLane="best" from="5673018#1" to="-589494596#1"/>
    <trip id="veh229" type="veh_passenger" depart="105.69" departLane="best" from="438384743" to="46521998#1"/>
    <trip id="veh230" type="veh_passenger" depart="106.15" departLane="best" from="441405436#1" to="226092571"/>
    <trip id="veh231" type="veh_passenger" depart="106.61" departLane="best" from="452322366#1" to="871725893#14"/>
    <trip id="veh232" type="veh_passenger" depart="107.08" departLane="best" from="496986803#12" to="5672524#5"/>
    <trip id="veh233" type="veh_passenger" depart="107.54" departLane="best" from="789634640#7" to="630828586#1"/>
    <trip id="veh234" type="veh_passenger" depart="108.00" departLane="best" from="420904660#1" to="-195743208#0"/>
    <trip id="veh235" type="veh_passenger" depart="108.46" departLane="best" from="420894352#8" to="618990022#17"/>
    <trip id="veh236" type="veh_passenger" depart="108.92" departLane="best" from="788602261#0" to="968394452#1"/>
    <trip id="veh237" type="veh_passenger" depart="109.38" departLane="best" from="447001272#2" to="597821266#8"/>
    <trip id="veh238" type="veh_passenger" depart="109.84" departLane="best" from="46521993#1" to="499172074#5"/>
    <trip id="veh239" type="veh_passenger" depart="110.31" departLane="best" from="22941923#1" to="273019810#4"/>
    <trip id="veh240" type="veh_passenger" depart="110.77" departLane="best" from="458166894#0" to="-421852042#1"/>
    <trip id="veh241" type="veh_passenger" depart="111.23" departLane="best" from="420872177#0" to="5671574#3"/>
    <trip id="veh242" type="veh_passenger" depart="111.69" departLane="best" from="422298615#2" to="196117089#0"/>
    <trip id="veh243" type="veh_passenger" depart="112.15" departLane="best" from="458180191#2" to="194926851#1"/>
    <trip id="veh244" type="veh_passenger" depart="112.61" departLane="best" from="518451327#0" to="-420908127#0"/>
    <trip id="veh245" type="veh_passenger" depart="113.08" departLane="best" from="421851200#0" to="46694753#6"/>
    <trip id="veh246" type="veh_passenger" depart="113.54" departLane="best" departSpeed="max" from="-420894367#1" to="5669664#1"/>
    <trip id="veh247" type="veh_passenger" depart="114.00" departLane="best" departSpeed="max" from="194923811" to="458180199#6"/>
    <trip id="veh248" type="veh_passenger" depart="114.46" departLane="best" departSpeed="max" from="-46694753#6" to="420908131"/>
    <trip id="veh249" type="veh_passenger" depart="114.92" departLane="best" from="226041032#4" to="420872204"/>
    <trip id="veh250" type="veh_passenger" depart="115.38" departLane="best" from="619280617#0" to="420908131"/>
    <trip id="veh251" type="veh_passenger" depart="115.84" departLane="best" from="609596058" to="710571387"/>
    <trip id="veh252" type="veh_passenger" depart="116.31" departLane="best" from="346613529#8" to="122738266"/>
    <trip id="veh253" type="veh_passenger" depart="116.77" departLane="best" from="-37182106#2" to="46520833#1"/>
    <trip id="veh254" type="veh_passenger" depart="117.23" departLane="best" from="993383311" to="420901681#1"/>
    <trip id="veh255" type="veh_passenger" depart="117.69" departLane="best" departSpeed="max" from="5669566" to="671208358#3"/>
    <trip id="veh256" type="veh_passenger" depart="118.15" departLane="best" from="5669669#1" to="618990022#19"/>
    <trip id="veh257" type="veh_passenger" depart="118.61" departLane="best" from="968393479#8" to="226041027#3"/>
    <trip id="veh258" type="veh_passenger" depart="119.08" departLane="best" from="-381477008#1" to="195743342#16"/>
    <trip id="veh259" type="veh_passenger" depart="119.54" departLane="best" from="194923795#7" to="5671056#4"/>
    <trip id="veh260" type="veh_passenger" depart="120.00" departLane="best" from="46579578#3" to="265356028"/>
    <trip id="veh262" type="veh_passenger" depart="120.92" departLane="best" from="195743343#1" to="505777310"/>