<?xml version="1.0" encoding="UTF-8"?>
<!-- generated on 2021-10-23 22:25:40.257629 by $Id$ v1_10_0+0000-83496a5972
  options: 
-->
<routes xmlns:xsi="http://www.w3.org/2001/XMLSchema-instance" xsi:noNamespaceSchemaLocation="http://sumo.dlr.de/xsd/routes_file.xsd">
    <vType id="ped_pedestrian" vClass="pedestrian"/>
    <person id="ped0" depart="0.00" type="ped_pedestrian">
        <personTrip from="702648013#7" to="-420901681#1" modes="public"/>
    </person>
    <person id="ped1" depart="0.43" type="ped_pedestrian">
        <personTrip from="389590214#1" to="350726028#1" modes="public"/>
    </person>
    <person id="ped2" depart="0.86" type="ped_pedestrian">
        <personTrip from="834028668#0" to="771939270#3" modes="public"/>
    </person>
    <person id="ped3" depart="1.30" type="ped_pedestrian">
        <personTrip from="891757981#0" to="-945384088#7" modes="public"/>
    </person>
    <person id="ped4" depart="1.73" type="ped_pedestrian">
        <personTrip from="485556247#1" to="-458106346#2" modes="public"/>
    </person>
    <person id="ped5" depart="2.16" type="ped_pedestrian">
        <personTrip from="346951422" to="5670876#3" modes="public"/>
    </person>
    <person id="ped6" depart="2.59" type="ped_pedestrian">
        <personTrip from="-420907906#1" to="317378545#2" modes="public"/>
    </person>
    <person id="ped7" depart="3.02" type="ped_pedestrian">
        <personTrip from="714529857#3" to="607762994#0" modes="public"/>
    </person>
    <person id="ped8" depart="3.45" type="ped_pedestrian">
        <personTrip from="35027226#1" to="689049667" modes="public"/>
    </person>
    <person id="ped9" depart="3.89" type="ped_pedestrian">
        <personTrip from="888552372#15" to="-196117075#1" modes="public"/>
    </person>
    <person id="ped10" depart="4.32" type="ped_pedestrian">
        <personTrip from="888552348#0" to="810630542" modes="public"/>
    </person>
    <person id="ped11" depart="4.75" type="ped_pedestrian">
        <personTrip from="436899182#1" to="22904020" modes="public"/>
    </person>
    <person id="ped12" depart="5.18" type="ped_pedestrian">
        <personTrip from="945305230#0" to="435189120#2" modes="public"/>
    </person>
    <person id="ped13" depart="5.61" type="ped_pedestrian">
        <personTrip from="-989265269#0" to="104983813" modes="public"/>
    </person>
    <person id="ped14" depart="6.04" type="ped_pedestrian">
        <personTrip from="888552580#2" to="702073783#0" modes="public"/>
    </person>
    <person id="ped15" depart="6.48" type="ped_pedestrian">
        <personTrip from="888552357#3" to="833728547#0" modes="public"/>
    </person>
    <person id="ped16" depart="6.91" type="ped_pedestrian">
        <personTrip from="578479864#0" to="958998480#1" modes="public"/>
    </person>
    <person id="ped17" depart="7.34" type="ped_pedestrian">
        <personTrip from="46334597" to="619469817#2" modes="public"/>
    </person>
    <person id="ped18" depart="7.77" type="ped_pedestrian">
        <personTrip from="888552484#0" to="702073806#6" modes="public"/>
    </person>
    <person id="ped19" depart="8.20" type="ped_pedestrian">
        <personTrip from="888695577#4" to="673228146#1" modes="public"/>
    </person>
    <person id="ped20" depart="8.63" type="ped_pedestrian">
        <personTrip from="817359714" to="-524411039#0" modes="public"/>
    </person>
    <person id="ped21" depart="9.07" type="ped_pedestrian">
        <personTrip from="362647334" to="39992044#2" modes="public"/>
    </person>
    <person id="ped22" depart="9.50" type="ped_pedestrian">
        <personTrip from="-868590107" to="36836395" modes="public"/>
    </person>
    <person id="ped23" depart="9.93" type="ped_pedestrian">
        <personTrip from="113049800" to="392495064#1" modes="public"/>
    </person>
    <person id="ped24" depart="10.36" type="ped_pedestrian">
        <personTrip from="702647999#5" to="458180192#2" modes="public"/>
    </person>
    <person id="ped25" depart="10.79" type="ped_pedestrian">
        <personTrip from="459815270#1" to="330177550#2" modes="public"/>
    </person>
    <person id="ped26" depart="11.22" type="ped_pedestrian">
        <personTrip from="385107995#3" to="907770631#4" modes="public"/>
    </person>
    <person id="ped27" depart="11.66" type="ped_pedestrian">
        <personTrip from="711147864#2" to="702073793#3" modes="public"/>
    </person>
    <person id="ped28" depart="12.09" type="ped_pedestrian">
        <personTrip from="234968471#1" to="833665345" modes="public"/>
    </person>
    <person id="ped29" depart="12.52" type="ped_pedestrian">
        <personTrip from="22936599#3" to="46432181#0" modes="public"/>
    </person>
    <person id="ped30" depart="12.95" type="ped_pedestrian">
        <personTrip from="988977547#0" to="703372851#2" modes="public"/>
    </person>
    <person id="ped31" depart="13.38" type="ped_pedestrian">
        <personTrip from="636625896#1" to="789634640#9" modes="public"/>
    </person>
    <person id="ped32" depart="13.81" type="ped_pedestrian">
        <personTrip from="888552542#0" to="871693863#1" modes="public"/>
    </person>
    <person id="ped33" depart="14.25" type="ped_pedestrian">
        <personTrip from="362785944#0" to="-458452178" modes="public"/>
    </person>
    <person id="ped34" depart="14.68" type="ped_pedestrian">
        <personTrip from="426425308#0" to="385108216#3" modes="public"/>
    </person>
    <person id="ped35" depart="15.11" type="ped_pedestrian">
        <personTrip from="330748462#2" to="934479930#7" modes="public"/>
    </person>
    <person id="ped36" depart="15.54" type="ped_pedestrian">
        <personTrip from="888695639#2" to="426324904" modes="public"/>
    </person>
    <person id="ped37" depart="15.97" type="ped_pedestrian">
        <personTrip from="727185207#1" to="464960357#1" modes="public"/>
    </person>
    <person id="ped38" depart="16.41" type="ped_pedestrian">
        <personTrip from="893820000#2" to="513706075" modes="public"/>
    </person>
    <person id="ped39" depart="16.84" type="ped_pedestrian">
        <personTrip from="385106577#0" to="379393542#0" modes="public"/>
    </person>
    <person id="ped40" depart="17.27" type="ped_pedestrian">
        <personTrip from="661040779#1" to="384178816#0" modes="public"/>
    </person>
    <person id="ped41" depart="17.70" type="ped_pedestrian">
        <personTrip from="68668541#1" to="891758002#1" modes="public"/>
    </person>
    <person id="ped42" depart="18.13" type="ped_pedestrian">
        <personTrip from="46522001#1" to="348477348#7" modes="public"/>
    </person>
    <person id="ped43" depart="18.56" type="ped_pedestrian">
        <personTrip from="992164859" to="5671425#1" modes="public"/>
    </person>
    <person id="ped44" depart="19.00" type="ped_pedestrian">
        <personTrip from="-972044630" to="-541331866#0" modes="public"/>
    </person>
    <person id="ped45" depart="19.43" type="ped_pedestrian">
        <personTrip from="127693383#1" to="702132138#2" modes="public"/>
    </person>
    <person id="ped46" depart="19.86" type="ped_pedestrian">
        <personTrip from="873366693#2" to="487519787#2" modes="public"/>
    </person>
    <person id="ped47" depart="20.29" type="ped_pedestrian">
        <personTrip from="-617499334#1" to="46443597#2" modes="public"/>
    </person>
    <person id="ped48" depart="20.72" type="ped_pedestrian">
        <personTrip from="990529011#0" to="570150866#1" modes="public"/>
    </person>
    <person id="ped49" depart="21.15" type="ped_pedestrian">
        <personTrip from="954595551#0" to="888695574#2" modes="public"/>
    </person>
    <person id="ped50" depart="21.59" type="ped_pedestrian">
        <personTrip from="-317378545#0" to="833335528#3" modes="public"/>
    </person>
    <person id="ped51" depart="22.02" type="ped_pedestrian">
        <personTrip from="785443719#0" to="584971503#0" modes="public"/>
    </person>
    <person id="ped52" depart="22.45" type="ped_pedestrian">
        <personTrip from="385107993" to="706083607#3" modes="public"/>
    </person>
    <person id="ped53" depart="22.88" type="ped_pedestrian">
        <personTrip from="128580934#2" to="495508614#8" modes="public"/>
    </person>
    <person id="ped54" depart="23.31" type="ped_pedestrian">
        <personTrip from="511809757" to="940543579#3" modes="public"/>
    </person>
    <person id="ped55" depart="23.74" type="ped_pedestrian">
        <personTrip from="888695637#1" to="385000491#0" modes="public"/>
    </person>
    <person id="ped56" depart="24.18" type="ped_pedestrian">
        <personTrip from="5670124#0" to="277885765" modes="public"/>
    </person>
    <person id="ped57" depart="24.61" type="ped_pedestrian">
        <personTrip from="893819999#0" to="888695611#2" modes="public"/>
    </person>
    <person id="ped58" depart="25.04" type="ped_pedestrian">
        <personTrip from="420892269" to="702648013#1" modes="public"/>
    </person>
    <person id="ped59" depart="25.47" type="ped_pedestrian">
        <personTrip from="702073793#1" to="226041032#4" modes="public"/>
    </person>
    <person id="ped60" depart="25.90" type="ped_pedestrian">
        <personTrip from="839860746#1" to="587260622#0" modes="public"/>
    </person>
    <person id="ped61" depart="26.33" type="ped_pedestrian">
        <personTrip from="871725879" to="570154519" modes="public"/>
    </person>
    <person id="ped62" depart="26.77" type="ped_pedestrian">
        <personTrip from="-127693383#1" to="426502692#4" modes="public"/>
    </person>
    <person id="ped63" depart="27.20" type="ped_pedestrian">
        <personTrip from="-387128267#11" to="894573942" modes="public"/>
    </person>
    <person id="ped64" depart="27.63" type="ped_pedestrian">
        <personTrip from="888695646#3" to="888552492" modes="public"/>
    </person>
    <person id="ped65" depart="28.06" type="ped_pedestrian">
        <personTrip from="420908130" to="-570150864" modes="public"/>
    </person>
    <person id="ped66" depart="28.49" type="ped_pedestrian">
        <personTrip from="888695642#1" to="934479955" modes="public"/>
    </person>
    <person id="ped67" depart="28.93" type="ped_pedestrian">
        <personTrip from="-931811545#1" to="540722276#1" modes="public"/>
    </person>
    <person id="ped68" depart="29.36" type="ped_pedestrian">
        <personTrip from="-696491645#1" to="839684928" modes="public"/>
    </person>
    <person id="ped69" depart="29.79" type="ped_pedestrian">
        <personTrip from="846127260#2" to="194923801#3" modes="public"/>
    </person>
    <person id="ped70" depart="30.22" type="ped_pedestrian">
        <personTrip from="527855914#1" to="619213772#0" modes="public"/>
    </person>
    <person id="ped71" depart="30.65" type="ped_pedestrian">
        <personTrip from="385106577#2" to="888695617#2" modes="public"/>
    </person>
    <person id="ped72" depart="31.08" type="ped_pedestrian">
        <personTrip from="492698718#0" to="330748475" modes="public"/>
    </person>
    <person id="ped73" depart="31.52" type="ped_pedestrian">
        <personTrip from="587256612#1" to="833728547#2" modes="public"/>
    </person>
    <person id="ped74" depart="31.95" type="ped_pedestrian">
        <personTrip from="318474852#9" to="425335581#4" modes="public"/>
    </person>
    <person id="ped75" depart="32.38" type="ped_pedestrian">
        <personTrip from="989267828#0" to="714529857#2" modes="public"/>
    </person>
    <person id="ped76" depart="32.81" type="ped_pedestrian">
        <personTrip from="495520691" to="5673020#0" modes="public"/>
    </person>
    <person id="ped77" depart="33.24" type="ped_pedestrian">
        <personTrip from="164420221" to="353075126#1" modes="public"/>
    </person>
    <person id="ped78" depart="33.67" type="ped_pedestrian">
        <personTrip from="435346673#3" to="688501826" modes="public"/>
    </person>
    <person id="ped79" depart="34.11" type="ped_pedestrian">
        <personTrip from="362785955#1" to="349598349" modes="public"/>
    </person>
    <person id="ped80" depart="34.54" type="ped_pedestrian">
        <personTrip from="-732258395#0" to="702543828#0" modes="public"/>
    </person>
    <person id="ped81" depart="34.97" type="ped_pedestrian">
        <personTrip from="362785943#1" to="893819972#0" modes="public"/>
    </person>
    <person id="ped82" depart="35.40" type="ped_pedestrian">
        <personTrip from="888695568#4" to="-732254816#2" modes="public"/>
    </person>
    <person id="ped83" depart="35.83" type="ped_pedestrian">
        <personTrip from="376545878" to="759904479#3" modes="public"/>
    </person>
    <person id="ped84" depart="36.26" type="ped_pedestrian">
        <personTrip from="332080767#2" to="195493289#0" modes="public"/>
    </person>
    <person id="ped85" depart="36.70" type="ped_pedestrian">
        <personTrip from="905645105#0" to="666218600#0" modes="public"/>
    </person>
    <person id="ped86" depart="37.13" type="ped_pedestrian">
        <personTrip from="526852032#0" to="871725914" modes="public"/>
    </person>
    <person id="ped87" depart="37.56" type="ped_pedestrian">
        <personTrip from="888552361#0" to="297995669#1" modes="public"/>
    </person>
    <person id="ped88" depart="37.99" type="ped_pedestrian">
        <personTrip from="104983817" to="495501818#2" modes="public"/>
    </person>
    <person id="ped89" depart="38.42" type="ped_pedestrian">
        <personTrip from="492704748#0" to="525922424#2" modes="public"/>
    </person>
    <person id="ped90" depart="38.85" type="ped_pedestrian">
        <personTrip from="833665345" to="760075313#1" modes="public"/>
    </person>
    <person id="ped91" depart="39.29" type="ped_pedestrian">
        <personTrip from="983849667#0" to="108111445#0" modes="public"/>
    </person>
    <person id="ped92" depart="39.72" type="ped_pedestrian">
        <personTrip from="46525065#1" to="435349443#1" modes="public"/>
    </person>
    <person id="ped93" depart="40.15" type="ped_pedestrian">
        <personTrip from="888695577#3" to="379641300#0" modes="public"/>
    </person>
    <person id="ped94" depart="40.58" type="ped_pedestrian">
        <personTrip from="297995667#3" to="505317783#0" modes="public"/>
    </person>
    <person id="ped95" depart="41.01" type="ped_pedestrian">
        <personTrip from="485556247#1" to="394093564#1" modes="public"/>
    </person>
    <person id="ped96" depart="41.44" type="ped_pedestrian">
        <personTrip from="379804461" to="893820030#5" modes="public"/>
    </person>
    <person id="ped97" depart="41.88" type="ped_pedestrian">
        <personTrip from="496989355#3" to="888695577#0" modes="public"/>
    </person>
    <person id="ped98" depart="42.31" type="ped_pedestrian">
        <personTrip from="619213775#0" to="-5669875#2" modes="public"/>
    </person>
    <person id="ped99" depart="42.74" type="ped_pedestrian">
        <personTrip from="99463303#0" to="888552516#1" modes="public"/>
    </person>
    <person id="ped100" depart="43.17" type="ped_pedestrian">
        <personTrip from="954583428#2" to="894118373#0" modes="public"/>
    </person>
    <person id="ped101" depart="43.60" type="ped_pedestrian">
        <personTrip from="888552586#3" to="22941539#3" modes="public"/>
    </person>
    <person id="ped102" depart="44.04" type="ped_pedestrian">
        <personTrip from="540356239#5" to="332080763#2" modes="public"/>
    </person>
    <person id="ped103" depart="44.47" type="ped_pedestrian">
        <personTrip from="46522008#7" to="-570152306#1" modes="public"/>
    </person>
    <person id="ped104" depart="44.90" type="ped_pedestrian">
        <personTrip from="46334600" to="985401940#2" modes="public"/>
    </person>
    <person id="ped105" depart="45.33" type="ped_pedestrian">
        <personTrip from="385106577#3" to="871725910#2" modes="public"/>
    </person>
    <person id="ped106" depart="45.76" type="ped_pedestrian">
        <personTrip from="511809780" to="492489893#1" modes="public"/>
    </person>
    <person id="ped107" depart="46.19" type="ped_pedestrian">
        <personTrip from="945305230#1" to="989270322#1" modes="public"/>
    </person>
    <person id="ped108" depart="46.63" type="ped_pedestrian">
        <personTrip from="636625888" to="828610137#0" modes="public"/>
    </person>
    <person id="ped109" depart="47.06" type="ped_pedestrian">
        <personTrip from="228996436#5" to="420872177#0" modes="public"/>
    </person>
    <person id="ped110" depart="47.49" type="ped_pedestrian">
        <personTrip from="954583427#1" to="682278650#1" modes="public"/>
    </person>
    <person id="ped111" depart="47.92" type="ped_pedestrian">
        <personTrip from="601733867" to="835393103#1" modes="public"/>
    </person>
    <person id="ped112" depart="48.35" type="ped_pedestrian">
        <personTrip from="-570149364#1" to="68668529#0" modes="public"/>
    </person>
    <person id="ped113" depart="48.78" type="ped_pedestrian">
        <personTrip from="5670719#12" to="888552609" modes="public"/>
    </person>
    <person id="ped114" depart="49.22" type="ped_pedestrian">
        <personTrip from="22909711#5" to="948627250#4" modes="public"/>
    </person>
    <person id="ped115" depart="49.65" type="ped_pedestrian">
        <personTrip from="-873093240" to="277945817" modes="public"/>
    </person>
    <person id="ped116" depart="50.08" type="ped_pedestrian">
        <personTrip from="689588697" to="767683114#2" modes="public"/>
    </person>
    <person id="ped117" depart="50.51" type="ped_pedestrian">
        <personTrip from="375164212" to="161157976#0" modes="public"/>
    </person>
    <person id="ped118" depart="50.94" type="ped_pedestrian">
        <personTrip from="891757926" to="378363612#2" modes="public"/>
    </person>
    <person id="ped119" depart="51.37" type="ped_pedestrian">
        <personTrip from="689241492#4" to="702073807#14" modes="public"/>
    </person>
    <person id="ped120" depart="51.81" type="ped_pedestrian">
        <personTrip from="477383295#3" to="686125790#0" modes="public"/>
    </person>
    <person id="ped121" depart="52.24" type="ped_pedestrian">
        <personTrip from="569345535" to="904165725" modes="public"/>
    </person>
    <person id="ped122" depart="52.67" type="ped_pedestrian">
        <personTrip from="31984130#1" to="823665376" modes="public"/>
    </person>
    <person id="ped123" depart="53.10" type="ped_pedestrian">
        <personTrip from="377576114#0" to="465063250" modes="public"/>
    </person>
    <person id="ped124" depart="53.53" type="ped_pedestrian">
        <personTrip from="759905745#2" to="420894367#0" modes="public"/>
    </person>
    <person id="ped125" depart="53.96" type="ped_pedestrian">
        <personTrip from="426425334#0" to="835393117#0" modes="public"/>
    </person>
    <person id="ped126" depart="54.40" type="ped_pedestrian">
        <personTrip from="-743358442#0" to="513706069" modes="public"/>
    </person>
    <person id="ped127" depart="54.83" type="ped_pedestrian">
        <personTrip from="993368839#8" to="990529011#0" modes="public"/>
    </person>
    <person id="ped128" depart="55.26" type="ped_pedestrian">
        <personTrip from="-767683110#0" to="332054904#1" modes="public"/>
    </person>
    <person id="ped129" depart="55.69" type="ped_pedestrian">
        <personTrip from="385106577#3" to="901619669#4" modes="public"/>
    </person>
    <person id="ped130" depart="56.12" type="ped_pedestrian">
        <personTrip from="888695654#8" to="888695648#1" modes="public"/>
    </person>
    <person id="ped131" depart="56.56" type="ped_pedestrian">
        <personTrip from="459810319#1" to="22909711#9" modes="public"/>
    </person>
    <person id="ped132" depart="56.99" type="ped_pedestrian">
        <personTrip from="888552503#1" to="817149870#1" modes="public"/>
    </person>
    <person id="ped133" depart="57.42" type="ped_pedestrian">
        <personTrip from="702073800#7" to="986961326#0" modes="public"/>
    </person>
    <person id="ped134" depart="57.85" type="ped_pedestrian">
        <personTrip from="727116511#5" to="-226041003#2" modes="public"/>
    </person>
    <person id="ped135" depart="58.28" type="ped_pedestrian">
        <personTrip from="888552432#0" to="420894352#5" modes="public"/>
    </person>
    <person id="ped136" depart="58.71" type="ped_pedestrian">
        <personTrip from="754763778#1" to="925898346#2" modes="public"/>
    </person>
    <person id="ped137" depart="59.15" type="ped_pedestrian">
        <personTrip from="195743190" to="134484066#4" modes="public"/>
    </person>
    <person id="ped138" depart="59.58" type="ped_pedestrian">
        <personTrip from="116672333#2" to="623648646#2" modes="public"/>
    </person>
    <person id="ped139" depart="60.01" type="ped_pedestrian">
        <personTrip from="388275229#1" to="702073784#6" modes="public"/>
    </person>
    <person id="ped140" depart="60.44" type="ped_pedestrian">
        <personTrip from="827749025#0" to="318474879#2" modes="public"/>
    </person>
    <person id="ped141" depart="60.87" type="ped_pedestrian">
        <personTrip from="702647997#3" to="385001974#2" modes="public"/>
    </person>
    <person id="ped142" depart="61.30" type="ped_pedestrian">
        <personTrip from="541448661" to="893819971#5" modes="public"/>
    </person>
    <person id="ped143" depart="61.74" type="ped_pedestrian">
        <personTrip from="888552556#6" to="-988980354#1" modes="public"/>
    </person>
    <person id="ped144" depart="62.17" type="ped_pedestrian">
        <personTrip from="492704748#0" to="390310751#1" modes="public"/>
    </person>
    <person id="ped145" depart="62.60" type="ped_pedestrian">
        <personTrip from="-194926851#1" to="857974348#0" modes="public"/>
    </person>
    <person id="ped146" depart="63.03" type="ped_pedestrian">
        <personTrip from="702648004#7" to="384177099#2" modes="public"/>
    </person>
    <person id="ped147" depart="63.46" type="ped_pedestrian">
        <personTrip from="834782979#0" to="619454130#0" modes="public"/>
    </person>
    <person id="ped148" depart="63.89" type="ped_pedestrian">
        <personTrip from="495253329" to="-252227354#1" modes="public"/>
    </person>
    <person id="ped149" depart="64.33" type="ped_pedestrian">
        <personTrip from="-809013919#0" to="889673029#0" modes="public"/>
    </person>
    <person id="ped150" depart="64.76" type="ped_pedestrian">
        <personTrip from="893819958#1" to="607762997#1" modes="public"/>
    </person>
    <person id="ped151" depart="65.19" type="ped_pedestrian">
        <personTrip from="888552508" to="686125782#14" modes="public"/>
    </person>
    <person id="ped152" depart="65.62" type="ped_pedestrian">
        <personTrip from="226041005#0" to="194923795#4" modes="public"/>
    </person>
    <person id="ped153" depart="66.05" type="ped_pedestrian">
        <personTrip from="420908138#3" to="891758005#4" modes="public"/>
    </person>
    <person id="ped154" depart="66.48" type="ped_pedestrian">
        <personTrip from="873372087#0" to="888695574#1" modes="public"/>
    </person>
    <person id="ped155" depart="66.92" type="ped_pedestrian">
        <personTrip from="891758005#4" to="330748456#0" modes="public"/>
    </person>
    <person id="ped156" depart="67.35" type="ped_pedestrian">
        <personTrip from="379749110" to="113049811#0" modes="public"/>
    </person>
    <person id="ped157" depart="67.78" type="ped_pedestrian">
        <personTrip from="871725889#2" to="889699102#0" modes="public"/>
    </person>
    <person id="ped158" depart="68.21" type="ped_pedestrian">
        <personTrip from="46610722#1" to="702073808#0" modes="public"/>
    </person>
    <person id="ped159" depart="68.64" type="ped_pedestrian">
        <personTrip from="228996436#2" to="895394557#0" modes="public"/>
    </person>
    <person id="ped160" depart="69.07" type="ped_pedestrian">
        <personTrip from="888695589#3" to="964198408" modes="public"/>
    </person>
    <person id="ped161" depart="69.51" type="ped_pedestrian">
        <personTrip from="888552376" to="888695655#7" modes="public"/>
    </person>
    <person id="ped162" depart="69.94" type="ped_pedestrian">
        <personTrip from="-420901679#0" to="834028668#1" modes="public"/>
    </person>
    <person id="ped163" depart="70.37" type="ped_pedestrian">
        <personTrip from="430387583" to="901619653#0" modes="public"/>
    </person>
    <person id="ped164" depart="70.80" type="ped_pedestrian">
        <personTrip from="884400298#1" to="888695588#2" modes="public"/>
    </person>
    <person id="ped165" depart="71.23" type="ped_pedestrian">
        <personTrip from="888552376" to="385107993" modes="public"/>
    </person>
    <person id="ped166" depart="71.67" type="ped_pedestrian">
        <personTrip from="871735478#1" to="121257600#2" modes="public"/>
    </person>
    <person id="ped167" depart="72.10" type="ped_pedestrian">
        <personTrip from="888695616" to="888695566#0" modes="public"/>
    </person>
    <person id="ped168" depart="72.53" type="ped_pedestrian">
        <personTrip from="350563861#3" to="888552430#0" modes="public"/>
    </person>
    <person id="ped169" depart="72.96" type="ped_pedestrian">
        <personTrip from="513706094" to="420904621#0" modes="public"/>
    </person>
    <person id="ped170" depart="73.39" type="ped_pedestrian">
        <personTrip from="873366718" to="362647333#0" modes="public"/>
    </person>
    <person id="ped171" depart="73.82" type="ped_pedestrian">
        <personTrip from="-420894365#1" to="297995674#23" modes="public"/>
    </person>
    <person id="ped172" depart="74.26" type="ped_pedestrian">
        <personTrip from="428252314#1" to="888695589#0" modes="public"/>
    </person>
    <person id="ped173" depart="74.69" type="ped_pedestrian">
        <personTrip from="949022085" to="396444293#1" modes="public"/>
    </person>
    <person id="ped174" depart="75.12" type="ped_pedestrian">
        <personTrip from="706083611#1" to="46522001#5" modes="public"/>
    </person>
    <person id="ped175" depart="75.55" type="ped_pedestrian">
        <personTrip from="972044631" to="578479864#0" modes="public"/>
    </person>
    <person id="ped176" depart="75.98" type="ped_pedestrian">
        <personTrip from="928866809" to="134484066#3" modes="public"/>
    </person>
    <person id="ped177" depart="76.41" type="ped_pedestrian">
        <personTrip from="954595549#1" to="277885758#1" modes="public"/>
    </person>
    <person id="ped178" depart="76.85" type="ped_pedestrian">
        <personTrip from="948627258" to="385106581#0" modes="public"/>
    </person>
    <person id="ped179" depart="77.28" type="ped_pedestrian">
        <personTrip from="121257607#1" to="495508614#5" modes="public"/>
    </person>
    <person id="ped180" depart="77.71" type="ped_pedestrian">
        <personTrip from="833665344#0" to="426140954" modes="public"/>
    </person>
    <person id="ped181" depart="78.14" type="ped_pedestrian">
        <personTrip from="702073785#19" to="5671701#1" modes="public"/>
    </person>
    <person id="ped182" depart="78.57" type="ped_pedestrian">
        <personTrip from="464516471#6" to="671212509" modes="public"/>
    </person>
    <person id="ped183" depart="79.00" type="ped_pedestrian">
        <personTrip from="380823793#0" to="818129167#0" modes="public"/>
    </person>
    <person id="ped184" depart="79.44" type="ped_pedestrian">
        <personTrip from="-167922070" to="894118370#5" modes="public"/>
    </person>
    <person id="ped185" depart="79.87" type="ped_pedestrian">
        <personTrip from="587061858#4" to="831044451#2" modes="public"/>
    </person>
    <person id="ped186" depart="80.30" type="ped_pedestrian">
        <personTrip from="834782987#1" to="759904486#2" modes="public"/>
    </person>
    <person id="ped187" depart="80.73" type="ped_pedestrian">
        <personTrip from="458180190#0" to="-717625447#1" modes="public"/>
    </person>
    <person id="ped188" depart="81.16" type="ped_pedestrian">
        <personTrip from="754763794#2" to="428568015#0" modes="public"/>
    </person>
    <person id="ped189" depart="81.59" type="ped_pedestrian">
        <personTrip from="426140959" to="888552582#3" modes="public"/>
    </person>
    <person id="ped190" depart="82.03" type="ped_pedestrian">
        <personTrip from="831044451#6" to="420895277#0" modes="public"/>
    </person>
    <person id="ped191" depart="82.46" type="ped_pedestrian">
        <personTrip from="421852037" to="469064328#2" modes="public"/>
    </person>
    <person id="ped192" depart="82.89" type="ped_pedestrian">
        <personTrip from="46525058" to="420802028#2" modes="public"/>
    </person>
    <person id="ped193" depart="83.32" type="ped_pedestrian">
        <personTrip from="194923795#2" to="480803093#0" modes="public"/>
    </person>
    <person id="ped194" depart="83.75" type="ped_pedestrian">
        <personTrip from="932784113#2" to="779661114#0" modes="public"/>
    </person>
    <person id="ped195" depart="84.19" type="ped_pedestrian">
        <personTrip from="891758026#2" to="702073805#25" modes="public"/>
    </person>
    <person id="ped196" depart="84.62" type="ped_pedestrian">
        <personTrip from="420899373" to="618613780" modes="public"/>
    </person>
    <person id="ped197" depart="85.05" type="ped_pedestrian">
        <personTrip from="-125480075" to="398400192#1" modes="public"/>
    </person>
    <person id="ped198" depart="85.48" type="ped_pedestrian">
        <personTrip from="495499668" to="683170660#0" modes="public"/>
    </person>
    <person id="ped199" depart="85.91" type="ped_pedestrian">
        <personTrip from="727119061#1" to="524411039#0" modes="public"/>
    </person>
    <person id="ped200" depart="86.34" type="ped_pedestrian">
        <personTrip from="496986803#6" to="332080763#1" modes="public"/>
    </person>