<?xml version="1.0" encoding="UTF-8"?>
<!-- generated on 2021-10-23 22:25:14.999333 by $Id: ptlines2flows.py v1_3_1+0313-ccb31df3eb jakob.erdmann@dlr.de 2019-09-02 13:26:32 +0200 $ v1_10_0+0000-83496a5972
  options: 
-->
<routes xmlns:xsi="http://www.w3.org/2001/XMLSchema-instance" xsi:noNamespaceSchemaLocation="http://sumo.dlr.de/xsd/routes_file.xsd">
    <vType id="pt_bus" vClass="bus"/>
    <vType id="pt_tram" vClass="tram"/>
    <vType id="pt_train" vClass="rail"/>
    <vType id="pt_subway" vClass="rail_urban"/>
    <vType id="pt_light_rail" vClass="rail_urban"/>
    <vType id="pt_monorail" vClass="rail"/>
    <vType id="pt_trolleybus" vClass="bus"/>
    <vType id="pt_aerialway" vClass="bus"/>
    <vType id="pt_ferry" vClass="ship"/>
    <route id="pt_subway_S:0" edges="817036018" >
        <stop busStop="7630776657" duration="30.00" until="31.0"/> <!-- Times Square -->
        <stop busStop="7630776662" duration="30.00" until="91.0"/> <!-- Grand Central -->
    </route>
    <route id="pt_subway_JSQ–33_via_HOB:0" edges="-552266811 -579074444 802782788 813712317" >
        <stop busStop="-5332398711" duration="30.00" until="31.0"/> <!-- 33rd Street -->
        <stop busStop="5551785165" duration="30.00" until="107.0"/> <!-- 23rd Street -->
    </route>
    <route id="pt_subway_JSQ–33_via_HOB:1" edges="813712318 802782787 579074443 552266811" >
        <stop busStop="5551785164" duration="30.00" until="67.0"/> <!-- 23rd Street -->
        <stop busStop="5332398711" duration="30.00" until="135.0"/> <!-- 33rd Street -->
    </route>
    <route id="pt_train_Harlem:0" edges="759945015" >
        <stop busStop="100515086" duration="30.00" until="31.0"/> <!-- Grand Central Terminal -->
    </route>
    <route id="pt_bus_2602:0" edges="767683111#1 767683110#2 767683108#0 460069727#1 5672730 207542284 36806908 46492009 968406200 46482819#1 320888292" >
        <stop busStop="7167585626" duration="30.00" until="33.0"/> <!-- FlixBus NYC 300 W 31st St. -->
    </route>
    <route id="pt_bus_2601:0" edges="767683111#1 767683110#2 767683108#0 460069727#1 5672730 207542284 36806908 46492009 968406200 46482819#1 320888292" >
        <stop busStop="7167585626" duration="30.00" until="34.0"/> <!-- FlixBus NYC 300 W 31st St. -->
    </route>
    <route id="pt_subway_S:1" edges="-821671625#1" >
        <stop busStop="-7630776662" duration="30.00" until="31.0"/> <!-- Grand Central -->
        <stop busStop="-7630776657" duration="30.00" until="89.0"/> <!-- Times Square -->
    </route>
    <route id="pt_train_Hudson:0" edges="759945015" >
        <stop busStop="100515086" duration="30.00" until="31.0"/> <!-- Grand Central Terminal -->
    </route>
    <route id="pt_bus_2601:1" edges="5669566 36806907 46492015 46492007 465256869 465256868 68325075 500182596 5670275 420901925 36806658 36806659#0 36806659#1 767683112#0 767683112#1 767683107#2 767683111#0 767683111#1" >
        <stop busStop="7167585626" duration="30.00" until="298.0"/> <!-- FlixBus NYC 300 W 31st St. -->
    </route>
    <route id="pt_bus_125:0" edges="8028096 5669218 36807165#0 36807165#1 223694351 273895450 36807166 5669332#1 36836400#0 36836400#1 36807214 -36807212" >
    </route>
    <route id="pt_bus_2602:1" edges="5669566 36806907 46492015 46492007 465256869 465256868 68325075 500182596 5670275 420901925 36806658 36806659#0 36806659#1 767683112#0 767683112#1 767683107#2 767683111#0 767683111#1" >
        <stop busStop="7167585626" duration="30.00" until="334.0"/> <!-- FlixBus NYC 300 W 31st St. -->
    </route>
    <route id="pt_bus_M23_SBS:0" edges="22904005 763121489 34625463#0 34625463#2 34625463#3 -420908136#0" >
        <stop busStop="8378777761" duration="30.00" until="43.0"/> <!-- 12th Avenue & West 23rd Street -->
    </route>
    <route id="pt_bus_2686:1" edges="767683111#1 767683110#2 767683108#0 460069727#1 5672730 207542284 36806908 46492009 968406200 46482819#1 320888292" >
        <stop busStop="7167585626" duration="30.00" until="34.0"/> <!-- FlixBus NYC 300 W 31st St. -->
    </route>
    <route id="pt_bus_Q101:0" edges="-46211829#2 -46211829#1 198595548 358290454#1 818182930#0 375164210 46419222#1" >
        <stop busStop="-4798293326" duration="30.00" until="38.0"/> <!-- East 60th Street/2nd Avenue -->
        <stop busStop="-4798293327" duration="30.00" until="69.0"/> <!-- East 60th Street & 2nd Avenue -->
    </route>
    <route id="pt_bus_M14A_SBS:1" edges="350726031#1" >
        <stop busStop="3913758293" duration="30.00" until="43.0"/> <!-- West 14th Street & 9th Avenue -->
    </route>
    <route id="pt_bus_Q101:1" edges="-46211829#2 -46211829#1 198595470" >
        <stop busStop="-4798293326" duration="30.00" until="104.0"/> <!-- East 60th Street/2nd Avenue -->
        <stop busStop="-4798293327" duration="30.00" until="135.0"/> <!-- East 60th Street & 2nd Avenue -->
    </route>
    <route id="pt_bus_2601:2" edges="767683111#1 767683110#2 767683108#0 460069727#1 5672730 207542284 36806908 46492009 968406200 46482819#1 320888292" >
        <stop busStop="7167585626" duration="30.00" until="35.0"/> <!-- FlixBus NYC 300 W 31st St. -->
    </route>
    <route id="pt_bus_M14A_SBS:0" edges="458106348#0 458106348#1 458106348#2 5670451#0 5670451#2 5670451#3" >
        <stop busStop="3913758293@12382566" duration="30.00" until="71.0"/> <!-- West 14th Street & 9th Avenue -->
    </route>
    <route id="pt_train_New_Haven:0" edges="759945015" >
        <stop busStop="100515086" duration="30.00" until="31.0"/> <!-- Grand Central Terminal -->
    </route>
    <route id="pt_subway_5:1" edges="817013577" >
        <stop busStop="7630558481" duration="30.00" until="111.0"/> <!-- 42nd Street–Grand Central -->
        <stop busStop="7630410489" duration="30.00" until="142.0"/> <!-- 59th Street -->
        <stop busStop="7630379982" duration="30.00" until="173.0"/> <!-- 86th Street -->
    </route>
    <route id="pt_bus_2686:0" edges="5669566 36806907 46492015 46492007 465256869 465256868 68325075 500182596 5670275 420901925 36806658 36806659#0 36806659#1 767683112#0 767683112#1 767683107#2 767683111#0 767683111#1" >
        <stop busStop="7167585626" duration="30.00" until="403.0"/> <!-- FlixBus NYC 300 W 31st St. -->
    </route>
    <route id="pt_bus_2683:1" edges="767683111#1 767683110#2 767683108#0 460069727#1 5672730 207542284 36806908 46492009 968406200 46482819#1 320888292" >
        <stop busStop="7167585626" duration="30.00" until="33.0"/> <!-- FlixBus NYC 300 W 31st St. -->
    </route>
    <route id="pt_subway_5:2" edges="817013577" >
        <stop busStop="7630558481" duration="30.00" until="106.0"/> <!-- 42nd Street–Grand Central -->
        <stop busStop="7630410489" duration="30.00" until="137.0"/> <!-- 59th Street -->
        <stop busStop="7630379982" duration="30.00" until="168.0"/> <!-- 86th Street -->
    </route>
    <route id="pt_subway_5:0" edges="816983740" >
        <stop busStop="7630379968" duration="30.00" until="92.0"/> <!-- 86th Street -->
        <stop busStop="7630379974" duration="30.00" until="206.0"/> <!-- 59th Street -->
        <stop busStop="7630588825" duration="30.00" until="237.0"/> <!-- 42nd Street–Grand Central -->
    </route>
    <route id="pt_subway_5:3" edges="816983740" >
        <stop busStop="7630379968" duration="30.00" until="88.0"/> <!-- 86th Street -->
        <stop busStop="7630379974" duration="30.00" until="202.0"/> <!-- 59th Street -->
        <stop busStop="7630588825" duration="30.00" until="233.0"/> <!-- 42nd Street–Grand Central -->
    </route>
    <route id="pt_subway_HOB–33:0" edges="-552266810 802782788 813712317" >
        <stop busStop="-5332358378" duration="30.00" until="31.0"/> <!-- 33rd Street -->
        <stop busStop="5551785165" duration="30.00" until="107.0"/> <!-- 23rd Street -->
    </route>
    <route id="pt_subway_JSQ–33:0" edges="813712318 802782787 552256574" >
        <stop busStop="5551785164" duration="30.00" until="67.0"/> <!-- 23rd Street -->
        <stop busStop="5332398715" duration="30.00" until="135.0"/> <!-- 33rd Street -->
    </route>
    <route id="pt_bus_Q60:0" edges="-46211829#2 -46211829#1 198595470" >
        <stop busStop="-4798293326" duration="30.00" until="106.0"/> <!-- East 60th Street/2nd Avenue -->
        <stop busStop="-4798293327" duration="30.00" until="137.0"/> <!-- East 60th Street & 2nd Avenue -->
    </route>
    <route id="pt_bus_2680:0" edges="767683111#1 767683110#2 767683108#0 460069727#1 5672730 207542284 36806908 46492009 968406200 46482819#1 320888292" >
        <stop busStop="7167585626" duration="30.00" until="35.0"/> <!-- FlixBus NYC 300 W 31st St. -->
    </route>
    <route id="pt_bus_2601:3" edges="5669566 36806907 46492015 46492007 465256869 465256868 68325075 500182596 5670275 420901925 36806658 36806659#0 36806659#1 767683112#0 767683112#1 767683107#2 767683111#0 767683111#1" >
        <stop busStop="7167585626" duration="30.00" until="440.0"/> <!-- FlixBus NYC 300 W 31st St. -->
    </route>
    <route id="pt_subway_F:0" edges="797157469 819186626 46340246" >
        <stop busStop="7656750800" duration="30.00" until="72.0"/> <!-- Lexington Avenue–63rd Street -->
        <stop busStop="7657247703" duration="30.00" until="103.0"/> <!-- 57th Street -->
        <stop busStop="597928314" duration="30.00" until="231.0"/> <!-- 47th–50th Streets–Rockefeller Center -->
        <stop busStop="7650206920" duration="30.00" until="289.0"/> <!-- 42nd Street–Bryant Park -->
        <stop busStop="7650207492" duration="30.00" until="320.0"/> <!-- 34th Street–Herald Square -->
        <stop busStop="5551785167" duration="30.00" until="351.0"/> <!-- 23rd Street -->
    </route>
    <route id="pt_train_55:0" edges="756094508 46493326 879081748#1 756094522 5671507#0 5671507#1 5671507#2 5671507#3 32965981" >
        <stop busStop="6342154195" duration="30.00" until="70.0"/> <!-- New York Penn Station -->
    </route>
    <route id="pt_subway_F:1" edges="813712319 819186628 819186615" >
        <stop busStop="7657247708" duration="30.00" until="68.0"/> <!-- 23rd Street -->
        <stop busStop="7650207498" duration="30.00" until="130.0"/> <!-- 34th Street–Herald Square -->
        <stop busStop="7657247706" duration="30.00" until="161.0"/> <!-- 42nd Street–Bryant Park -->
        <stop busStop="7650206927" duration="30.00" until="192.0"/> <!-- 47th–50th Streets–Rockefeller Center -->
        <stop busStop="7657247702" duration="30.00" until="304.0"/> <!-- 57th Street -->
        <stop busStop="7656750799" duration="30.00" until="335.0"/> <!-- Lexington Avenue–63rd Street -->
    </route>
    <route id="pt_bus_QM7:0" edges="169383516#1" >
        <stop busStop="6133359418" duration="30.00" until="36.0"/> <!-- 1 Av/E 42 St -->
    </route>
    <route id="pt_bus_Q101:2" edges="-46211829#1" >
        <stop busStop="-4798293326" duration="30.00" until="33.0"/> <!-- East 60th Street/2nd Avenue -->
        <stop busStop="-4798293327" duration="30.00" until="64.0"/> <!-- East 60th Street & 2nd Avenue -->
    </route>
    <route id="pt_bus_2683:0" edges="5669566 36806907 46492015 46492007 465256869 465256868 68325075 500182596 5670275 420901925 36806658 36806659#0 36806659#1 767683112#0 767683112#1 767683107#2 767683111#0 767683111#1" >
        <stop busStop="7167585626" duration="30.00" until="481.0"/> <!-- FlixBus NYC 300 W 31st St. -->
    </route>
    <route id="pt_subway_4:0" edges="816983740" >
        <stop busStop="7630379968" duration="30.00" until="128.0"/> <!-- 86th Street -->
        <stop busStop="7630379974" duration="30.00" until="273.0"/> <!-- 59th Street -->
        <stop busStop="7630588825" duration="30.00" until="304.0"/> <!-- 42nd Street–Grand Central -->
    </route>
    <route id="pt_subway_4:1" edges="817013577" >
        <stop busStop="7630558481" duration="30.00" until="208.0"/> <!-- 42nd Street–Grand Central -->
        <stop busStop="7630410489" duration="30.00" until="239.0"/> <!-- 59th Street -->
        <stop busStop="7630379982" duration="30.00" until="270.0"/> <!-- 86th Street -->
    </route>
    <route id="pt_train_57:0" edges="756094508 46493326 879081748#1 756094522 5671507#0 5671507#1 5671507#2 5671507#3 32965981" >
        <stop busStop="6342154195" duration="30.00" until="103.0"/> <!-- New York Penn Station -->
    </route>
    <route id="pt_bus_Q60:1" edges="-46211829#1" >
        <stop busStop="-4798293326" duration="30.00" until="32.0"/> <!-- East 60th Street/2nd Avenue -->
        <stop busStop="-4798293327" duration="30.00" until="63.0"/> <!-- East 60th Street & 2nd Avenue -->
    </route>
    <route id="pt_subway_D:0" edges="819186630 819186612 715214988 816331850#0 816331850#1 816331850#2 816331850#3 689037416#1 689037416#3 689037416#4 689037416#9 689037416#10 689037416#16" >
        <stop busStop="7650206934" duration="30.00" until="100.0"/> <!-- 34th Street–Herald Square -->
        <stop busStop="7657247704" duration="30.00" until="150.0"/> <!-- 42nd Street–Bryant Park -->
        <stop busStop="7650206932" duration="30.00" until="181.0"/> <!-- 47th–50th Streets–Rockefeller Center -->
        <stop busStop="7657247698" duration="30.00" until="270.0"/> <!-- 7th Avenue -->
        <stop busStop="6463379284" duration="30.00" until="358.0"/> <!-- 59th Street–Columbus Circle -->
    </route>
    <route id="pt_subway_HOB–33:1" edges="813712318 579074445#0 579074445#1 552266810" >
        <stop busStop="5551785164" duration="30.00" until="67.0"/> <!-- 23rd Street -->
        <stop busStop="5332358378" duration="30.00" until="135.0"/> <!-- 33rd Street -->
    </route>
    <route id="pt_bus_M14D_SBS:0" edges="458106348#0 458106348#1 458106348#2 194923791#0 194923791#2 196117075#0 196117075#1 196117075#2 196117075#3 22909152#0 22909152#1 194923792#0 194923792#1 194923802#0 194923802#1 194923802#2 992132287#0" >
        <stop busStop="3913758293@12382567" duration="30.00" until="136.0"/> <!-- West 14th Street & 9th Avenue -->
    </route>
    <route id="pt_bus_2680:1" edges="5669566 36806907 46492015 46492007 465256869 465256868 68325075 500182596 5670275 420901925 36806658 36806659#0 36806659#1 767683112#0 767683112#1 767683107#2 767683111#0 767683111#1" >
        <stop busStop="7167585626" duration="30.00" until="541.0"/> <!-- FlixBus NYC 300 W 31st St. -->
    </route>
    <route id="pt_subway_JSQ–33:1" edges="-552256574 -579074446#1 -579074446#0 813712317" >
        <stop busStop="-5332398715" duration="30.00" until="31.0"/> <!-- 33rd Street -->
        <stop busStop="5551785165" duration="30.00" until="107.0"/> <!-- 23rd Street -->
    </route>
    <route id="pt_subway_D:1" edges="686769237#0 686769237#1 686769237#7 686769237#8 686769237#13 686769237#14 686769237#16 171570637#1 171570637#2 715214987 715214982 819186625" >
        <stop busStop="6463380721" duration="30.00" until="189.0"/> <!-- 59th Street–Columbus Circle -->
        <stop busStop="7657247700" duration="30.00" until="246.0"/> <!-- 7th Avenue -->
        <stop busStop="7650206922" duration="30.00" until="334.0"/> <!-- 47th–50th Streets–Rockefeller Center -->
        <stop busStop="591997397" duration="30.00" until="380.0"/> <!-- 42nd Street–Bryant Park -->
        <stop busStop="5350434153" duration="30.00" until="411.0"/> <!-- 34th Street–Herald Square -->
    </route>
    <route id="pt_subway_S:2" edges="-484012802" >
        <stop busStop="591997437" duration="30.00" until="39.0"/> <!-- Times Square -->
        <stop busStop="3918987127" duration="30.00" until="70.0"/> <!-- Grand Central -->
    </route>
    <route id="pt_train_64:0" edges="756094505" >
        <stop busStop="6165053270" duration="30.00" until="58.0"/> <!-- New York Penn Station -->
    </route>
    <route id="pt_bus_M66:0" edges="968393473#0 968393473#3 968393473#6 968393473#7 945384088#1 945384088#4 945384088#6 195743335#1 36185330#1 36185329 -992603349 5673114#0 5673114#1 46334586#0 46334586#1 46334586#2 46334586#3 46334586#5 195743212#1 195743212#2 68668561#0 68668561#1" >
        <stop busStop="3278932320" duration="30.00" until="120.0"/> <!-- 67th St / Lexington Ave -->
    </route>
    <route id="pt_train_2167:0" edges="756094508 46493326 879081748#1 756094522 5671507#0 5671507#1 5671507#2 5671507#3 32965981" >
        <stop busStop="6342154195" duration="30.00" until="102.0"/> <!-- New York Penn Station -->
    </route>
    <route id="pt_subway_D:2" edges="819186630 819186612 715214988 816331850#0 816331850#1 816331850#2 816331850#3 689037416#1 689037416#3 689037416#4 689037416#9 689037416#10 689037416#16" >
        <stop busStop="7650206934" duration="30.00" until="96.0"/> <!-- 34th Street–Herald Square -->
        <stop busStop="7657247704" duration="30.00" until="146.0"/> <!-- 42nd Street–Bryant Park -->
        <stop busStop="7650206932" duration="30.00" until="177.0"/> <!-- 47th–50th Streets–Rockefeller Center -->
        <stop busStop="7657247698" duration="30.00" until="303.0"/> <!-- 7th Avenue -->
        <stop busStop="6463379284" duration="30.00" until="393.0"/> <!-- 59th Street–Columbus Circle -->
    </route>
    <route id="pt_subway_E:1" edges="759735515 46340266 719086609 719086610#0" >
        <stop busStop="591998010" duration="30.00" until="76.0"/> <!-- 53rd Street–Lexington Avenue -->
        <stop busStop="5407862242" duration="30.00" until="131.0"/> <!-- 53rd Street–5th Avenue -->
        <stop busStop="7657247701" duration="30.00" until="214.0"/> <!-- 7th Avenue -->
        <stop busStop="6751642215" duration="30.00" until="256.0"/> <!-- 50th Street -->
        <stop busStop="6751622968" duration="30.00" until="337.0"/> <!-- 42nd Street–Port Authority Bus Terminal -->
        <stop busStop="6923621274" duration="30.00" until="368.0"/> <!-- 34th Street–Penn Station -->
        <stop busStop="6923621238" duration="30.00" until="399.0"/> <!-- 23rd Street -->
        <stop busStop="6923621199" duration="30.00" until="430.0"/> <!-- 14th Street -->
    </route>
    <route id="pt_subway_Q:1" edges="46340259 817381421 821206648#0 821206648#1 817381419 817381397 817381417" >
        <stop busStop="7656750798" duration="30.00" until="67.0"/> <!-- Lexington Avenue–63rd Street -->
        <stop busStop="7656750807" duration="30.00" until="170.0"/> <!-- 57th Street–7th Avenue -->
        <stop busStop="7633689337" duration="30.00" until="241.0"/> <!-- 49th Street -->
        <stop busStop="7656750813" duration="30.00" until="288.0"/> <!-- 42nd Street–Times Square -->
        <stop busStop="7633705497" duration="30.00" until="377.0"/> <!-- 34th Street–Herald Square -->
        <stop busStop="7633689319" duration="30.00" until="431.0"/> <!-- 28th Street -->
        <stop busStop="7633689324" duration="30.00" until="462.0"/> <!-- 23rd Street -->
    </route>
    <route id="pt_subway_E:2" edges="759735515 46340266 719086609 719086610#0" >
        <stop busStop="591998010" duration="30.00" until="71.0"/> <!-- 53rd Street–Lexington Avenue -->
        <stop busStop="5407862242" duration="30.00" until="126.0"/> <!-- 53rd Street–5th Avenue -->
        <stop busStop="7657247701" duration="30.00" until="209.0"/> <!-- 7th Avenue -->
        <stop busStop="6751642215" duration="30.00" until="251.0"/> <!-- 50th Street -->
        <stop busStop="6751622968" duration="30.00" until="332.0"/> <!-- 42nd Street–Port Authority Bus Terminal -->
        <stop busStop="6923621274" duration="30.00" until="363.0"/> <!-- 34th Street–Penn Station -->
        <stop busStop="6923621238" duration="30.00" until="394.0"/> <!-- 23rd Street -->
        <stop busStop="6923621199" duration="30.00" until="425.0"/> <!-- 14th Street -->
    </route>
    <route id="pt_train_54:0" edges="316621098 750256036#0 750256036#1 750256036#2 750256036#3 756094477 571475066#0 571475066#1 750256035#0 750256035#1 750256035#2 750256035#3 572231716 571475065" >
        <stop busStop="6616343384" duration="30.00" until="324.0"/> <!-- New York Penn Station -->
    </route>
    <route id="pt_train_157:0" edges="756094508 46493326 879081748#1 756094522 5671507#0 5671507#1 5671507#2 5671507#3 32965981" >
        <stop busStop="6342154195" duration="30.00" until="102.0"/> <!-- New York Penn Station -->
    </route>
    <route id="pt_subway_N:1" edges="817381409 817381403 817381402 821206644 821206643 817383474" >
        <stop busStop="7633705521" duration="30.00" until="69.0"/> <!-- 23rd Street -->
        <stop busStop="7633705517" duration="30.00" until="131.0"/> <!-- 28th Street -->
        <stop busStop="7633705506" duration="30.00" until="177.0"/> <!-- 34th Street–Herald Square -->
        <stop busStop="7633705531" duration="30.00" until="261.0"/> <!-- 42nd Street–Times Square -->
        <stop busStop="7633705534" duration="30.00" until="321.0"/> <!-- 49th Street -->
        <stop busStop="7656750809" duration="30.00" until="392.0"/> <!-- 57th Street–7th Avenue -->
        <stop busStop="7656750804" duration="30.00" until="477.0"/> <!-- 5th Avenue–59th Street -->
        <stop busStop="4796291635" duration="30.00" until="548.0"/> <!-- Lexington Avenue–59th Street -->
    </route>
    <route id="pt_subway_D:3" edges="686769237#0 686769237#1 686769237#7 686769237#8 686769237#13 686769237#14 686769237#16 171570637#1 171570637#2 715214987 715214982 819186625" >
        <stop busStop="6463380721" duration="30.00" until="222.0"/> <!-- 59th Street–Columbus Circle -->
        <stop busStop="7657247700" duration="30.00" until="280.0"/> <!-- 7th Avenue -->
        <stop busStop="7650206922" duration="30.00" until="433.0"/> <!-- 47th–50th Streets–Rockefeller Center -->
        <stop busStop="591997397" duration="30.00" until="479.0"/> <!-- 42nd Street–Bryant Park -->
        <stop busStop="5350434153" duration="30.00" until="510.0"/> <!-- 34th Street–Herald Square -->
    </route>
    <route id="pt_bus_M31:0" edges="195743211#1 584971503#0 324118557#0 324118557#1 226041033 324118556#1 420890025 420890027 420890029 439933933 -196117083#1 -5672752#1 -5672752#0 -496986969#1 -496986969#0 497258109#0 5670139 388696206 497165757#0 497165757#1 505778913 375165665 710571390 587038175#1 421851200#0 421851200#1" >
        <stop busStop="-4794775935" duration="30.00" until="185.0"/> <!-- West 57th Street & 7th Avenue -->
        <stop busStop="-4794775932" duration="30.00" until="223.0"/> <!-- West 57th Street & 7th Avenue -->
    </route>
    <route id="pt_subway_N:0" edges="817383471 817381420 821206638 817381419 817381397 817381417" >
        <stop busStop="7656750802" duration="30.00" until="82.0"/> <!-- Lexington Avenue–59th Street -->
        <stop busStop="7656750805" duration="30.00" until="153.0"/> <!-- 5th Avenue–59th Street -->
        <stop busStop="7656750808" duration="30.00" until="228.0"/> <!-- 57th Street–7th Avenue -->
        <stop busStop="7633689337" duration="30.00" until="334.0"/> <!-- 49th Street -->
        <stop busStop="7656750813" duration="30.00" until="381.0"/> <!-- 42nd Street–Times Square -->
        <stop busStop="7633705497" duration="30.00" until="470.0"/> <!-- 34th Street–Herald Square -->
        <stop busStop="7633689319" duration="30.00" until="524.0"/> <!-- 28th Street -->
        <stop busStop="7633689324" duration="30.00" until="555.0"/> <!-- 23rd Street -->
    </route>
    <route id="pt_subway_N:2" edges="817383471 817381420 821206638 817381419 817381397 817381417" >
        <stop busStop="7656750802" duration="30.00" until="78.0"/> <!-- Lexington Avenue–59th Street -->
        <stop busStop="7656750805" duration="30.00" until="149.0"/> <!-- 5th Avenue–59th Street -->
        <stop busStop="7656750808" duration="30.00" until="224.0"/> <!-- 57th Street–7th Avenue -->
        <stop busStop="7633689337" duration="30.00" until="320.0"/> <!-- 49th Street -->
        <stop busStop="7656750813" duration="30.00" until="367.0"/> <!-- 42nd Street–Times Square -->
        <stop busStop="7633705497" duration="30.00" until="456.0"/> <!-- 34th Street–Herald Square -->
        <stop busStop="7633689319" duration="30.00" until="510.0"/> <!-- 28th Street -->
        <stop busStop="7633689324" duration="30.00" until="541.0"/> <!-- 23rd Street -->
    </route>
    <route id="pt_subway_3:0" edges="808965711 803142784#1 803142784#2 803142782#1 821671629" >
        <stop busStop="5106260207" duration="30.00" until="53.0"/> <!-- 14th Street -->
        <stop busStop="4464067416" duration="30.00" until="108.0"/> <!-- 34th Street–Penn Station -->
        <stop busStop="5111472138" duration="30.00" until="226.0"/> <!-- 42nd Street–Times Square -->
    </route>
    <route id="pt_subway_Q:0" edges="817381409 817381403 817381402 821206645#0 821206645#1 821206641 817381408" >
        <stop busStop="7633705521" duration="30.00" until="65.0"/> <!-- 23rd Street -->
        <stop busStop="7633705517" duration="30.00" until="199.0"/> <!-- 28th Street -->
        <stop busStop="7633705506" duration="30.00" until="245.0"/> <!-- 34th Street–Herald Square -->
        <stop busStop="7633705531" duration="30.00" until="329.0"/> <!-- 42nd Street–Times Square -->
        <stop busStop="7633705534" duration="30.00" until="389.0"/> <!-- 49th Street -->
        <stop busStop="7656750806" duration="30.00" until="460.0"/> <!-- 57th Street–7th Avenue -->
        <stop busStop="7656750801" duration="30.00" until="525.0"/> <!-- Lexington Avenue–63rd Street -->
    </route>
    <route id="pt_subway_S:3" edges="-821671622" >
        <stop busStop="-3918987127" duration="30.00" until="31.0"/> <!-- Grand Central -->
        <stop busStop="-591997437" duration="30.00" until="93.0"/> <!-- Times Square -->
    </route>
    <route id="pt_subway_2:0" edges="803130478 803137435#0 803137435#1 525428784#1 803142785" >
        <stop busStop="5111464772" duration="30.00" until="117.0"/> <!-- 42nd Street–Times Square -->
        <stop busStop="6496930048" duration="30.00" until="203.0"/> <!-- 34th Street–Penn Station -->
        <stop busStop="4464067393" duration="30.00" until="295.0"/> <!-- 14th Street -->
    </route>
    <route id="pt_subway_3:3" edges="821671629" >
        <stop busStop="5111472138" duration="30.00" until="42.0"/> <!-- 42nd Street–Times Square -->
    </route>
    <route id="pt_subway_E:0" edges="739454520 719086607 816679188 819186609" >
        <stop busStop="6923621203" duration="30.00" until="176.0"/> <!-- 14th Street -->
        <stop busStop="6923621236" duration="30.00" until="223.0"/> <!-- 23rd Street -->
        <stop busStop="6923621277" duration="30.00" until="254.0"/> <!-- 34th Street–Penn Station -->
        <stop busStop="6751642166" duration="30.00" until="285.0"/> <!-- 42nd Street–Port Authority Bus Terminal -->
        <stop busStop="7450462465" duration="30.00" until="420.0"/> <!-- 50th Street -->
        <stop busStop="7657247699" duration="30.00" until="451.0"/> <!-- 7th Avenue -->
        <stop busStop="7650207504" duration="30.00" until="550.0"/> <!-- 53rd Street–5th Avenue -->
        <stop busStop="7650173977" duration="30.00" until="597.0"/> <!-- 53rd Street–Lexington Avenue -->
    </route>
    <route id="pt_train_2170:0" edges="316621098 750256036#0 750256036#1 750256036#2 750256036#3 756094477 571475066#0 571475066#1 750256035#0 750256035#1 750256035#2 750256035#3 572231716 571475065" >
        <stop busStop="6616343384" duration="30.00" until="358.0"/> <!-- New York Penn Station -->
    </route>
    <route id="pt_subway_3:2" edges="803130478" >
        <stop busStop="5111464772" duration="30.00" until="117.0"/> <!-- 42nd Street–Times Square -->
    </route>
    <route id="pt_train_2165:0" edges="46493330 901213208 95579501 756094508 46493326 879081748#1 756094522 5671507#0 5671507#1 5671507#2 5671507#3 32965981" >
        <stop busStop="6342154195" duration="30.00" until="336.0"/> <!-- New York Penn Station -->
    </route>
    <route id="pt_subway_4:2" edges="817013577" >
        <stop busStop="7630558481" duration="30.00" until="111.0"/> <!-- 42nd Street–Grand Central -->
        <stop busStop="7630410489" duration="30.00" until="142.0"/> <!-- 59th Street -->
        <stop busStop="7630379982" duration="30.00" until="173.0"/> <!-- 86th Street -->
    </route>
    <route id="pt_subway_A:0" edges="689037413#1 689037413#6 689037413#7 689037412#1 46340129#1 816679186 719086610#0" >
        <stop busStop="6437617431" duration="30.00" until="31.0"/> <!-- 103rd Street -->
        <stop busStop="6437617428" duration="30.00" until="62.0"/> <!-- 96th Street -->
        <stop busStop="6437617426" duration="30.00" until="160.0"/> <!-- 86th Street -->
        <stop busStop="6437617424" duration="30.00" until="206.0"/> <!-- 81st Street–Museum of Natural History -->
        <stop busStop="6441849564" duration="30.00" until="237.0"/> <!-- 72nd Street -->
        <stop busStop="6463380709" duration="30.00" until="363.0"/> <!-- 59th Street–Columbus Circle -->
        <stop busStop="6751642217" duration="30.00" until="420.0"/> <!-- 50th Street -->
        <stop busStop="6751622968" duration="30.00" until="525.0"/> <!-- 42nd Street–Port Authority Bus Terminal -->
        <stop busStop="6923621274" duration="30.00" until="556.0"/> <!-- 34th Street–Penn Station -->
        <stop busStop="6923621238" duration="30.00" until="587.0"/> <!-- 23rd Street -->
        <stop busStop="6923621199" duration="30.00" until="618.0"/> <!-- 14th Street -->
    </route>
    <route id="pt_subway_5:4" edges="816983740" >
        <stop busStop="7630379968" duration="30.00" until="92.0"/> <!-- 86th Street -->
        <stop busStop="7630379974" duration="30.00" until="206.0"/> <!-- 59th Street -->
        <stop busStop="7630588825" duration="30.00" until="237.0"/> <!-- 42nd Street–Grand Central -->
    </route>