<?xml version="1.0" encoding="UTF-8"?>

<!-- generated on 2021-10-23 22:24:45 by Eclipse SUMO netconvert Version 1.10.0
<configuration xmlns:xsi="http://www.w3.org/2001/XMLSchema-instance" xsi:noNamespaceSchemaLocation="http://sumo.dlr.de/xsd/netconvertConfiguration.xsd">

    <input>
        <type-files value="C:\Program%20Files%20(x86)\Eclipse\Sumo\data\typemap\osmNetconvert.typ.xml,C:\Program%20Files%20(x86)\Eclipse\Sumo\data\typemap\osmNetconvertUrbanDe.typ.xml,C:\Program%20Files%20(x86)\Eclipse\Sumo\data\typemap\osmNetconvertPedestrians.typ.xml"/>
        <osm-files value="osm_bbox.osm.xml"/>
    </input>

    <output>
        <output-file value="osm.net.xml"/>
        <output.street-names value="true"/>
        <output.original-names value="true"/>
        <ptstop-output value="osm_stops.add.xml"/>
        <ptline-output value="osm_ptlines.xml"/>
    </output>

    <projection>
        <proj.utm value="true"/>
    </projection>

    <processing>
        <geometry.remove value="true"/>
        <roundabouts.guess value="true"/>
    </processing>

    <tls_building>
        <tls.discard-simple value="true"/>
        <tls.join value="true"/>
        <tls.guess-signals value="true"/>
        <tls.default-type value="actuated"/>
    </tls_building>

    <ramp_guessing>
        <ramps.guess value="true"/>
    </ramp_guessing>

    <junctions>
        <junctions.join value="true"/>
        <junctions.corner-detail value="5"/>
    </junctions>

    <pedestrian>
        <crossings.guess value="true"/>
    </pedestrian>

    <railway>
        <railway.topology.repair value="true"/>
        <railway.topology.repair.stop-turn value="true"/>
    </railway>

    <report>
        <verbose value="true"/>
        <aggregate-warnings value="5"/>
    </report>

</configuration>
-->

<additional xmlns:xsi="http://www.w3.org/2001/XMLSchema-instance" xsi:noNamespaceSchemaLocation="http://sumo.dlr.de/xsd/additional_file.xsd">
    <busStop id="-100515086" name="Grand Central Terminal" lane="-804074070_0" startPos="263.75" endPos="363.75" friendlyPos="true">
        <access lane="473560295_0" pos="9.84" length="7.56" friendlyPos="1"/>
        <access lane="473560296_0" pos="9.82" length="7.16" friendlyPos="1"/>
        <access lane="473560297_0" pos="11.17" length="7.95" friendlyPos="1"/>
        <access lane="473560298_0" pos="11.17" length="9.68" friendlyPos="1"/>
        <access lane="473560368#1_0" pos="0.10" length="24.57" friendlyPos="1"/>
    </busStop>
    <busStop id="-1427285944" name="East 42nd Street &amp; Lexington Avenue" lane="-496990648_1" startPos="40.76" endPos="55.76" friendlyPos="true" lines="M42"/>
    <busStop id="-1912138145" name="Grand Central Terminal" lane="-759735512_0" startPos="288.19" endPos="388.19" friendlyPos="true">
        <access lane="473560295_0" pos="9.84" length="10.48" friendlyPos="1"/>
        <access lane="473560296_0" pos="9.82" length="8.57" friendlyPos="1"/>
        <access lane="473560297_0" pos="11.17" length="7.40" friendlyPos="1"/>
        <access lane="473560298_0" pos="11.17" length="7.36" friendlyPos="1"/>
        <access lane="473560368#1_0" pos="0.10" length="24.44" friendlyPos="1"/>
    </busStop>
    <busStop id="-1912138148" name="Grand Central Terminal" lane="-759735514_0" startPos="329.42" endPos="429.42" friendlyPos="true">
        <access lane="473560295_0" pos="9.84" length="7.55" friendlyPos="1"/>
        <access lane="473560296_0" pos="9.82" length="7.40" friendlyPos="1"/>
        <access lane="473560297_0" pos="11.17" length="8.39" friendlyPos="1"/>
        <access lane="473560298_0" pos="11.17" length="10.23" friendlyPos="1"/>
        <access lane="473560368#1_0" pos="0.10" length="24.84" friendlyPos="1"/>
    </busStop>
    <busStop id="-3269484626" name="Central Park West &amp; West 70th Street" lane="-661227257#11_1" startPos="2.02" endPos="17.02" friendlyPos="true" lines="M10 M72"/>
    <busStop id="-3269484627" name="Central Park West &amp; West 64th Street" lane="-46579577#1_1" startPos="6.30" endPos="21.30" friendlyPos="true" lines="M10"/>
    <busStop id="-3269484629" name="Central Park West &amp; West 68th Street" lane="-661227257#5_1" startPos="0.00" endPos="14.29" friendlyPos="true" lines="M10 M72"/>
    <busStop id="-3271270870" name="Central Park West &amp; West 66th Street" lane="-47795999#1_1" startPos="8.36" endPos="23.36" friendlyPos="true" lines="M10"/>
    <busStop id="-3679357885" name="W 42 St / 12 Av" lane="-169267538#1_1" startPos="19.88" endPos="34.88" friendlyPos="true" lines="M42"/>
    <busStop id="-3679360604" name="W 42 St / 11 Av" lane="-974611019#1_1" startPos="60.85" endPos="75.85" friendlyPos="true" lines="M42"/>
    <busStop id="-3679366525" name="W 42 St / 10 Av" lane="-68325079_1" startPos="31.43" endPos="46.43" friendlyPos="true" lines="M42"/>
    <busStop id="-3679372025" name="W 42 St / 9 Av" lane="-542259076#3_1" startPos="20.25" endPos="35.25" friendlyPos="true" lines="M42"/>
    <busStop id="-3679372930" name="W 42 St / 9 Av" lane="-167922077_1" startPos="27.08" endPos="42.08" friendlyPos="true" lines="M42"/>
    <busStop id="-3679386558" name="W 24 St / 8 Av" lane="-542259076#0_1" startPos="18.33" endPos="33.33" friendlyPos="true" lines="M42"/>
    <busStop id="-3679392380" name="200 West 42nd Street" lane="-525729008#1_1" startPos="107.31" endPos="122.31" friendlyPos="true" lines="M42"/>
    <busStop id="-3679402057" name="W 42 St / 6 Av" lane="-511699183#2_1" startPos="10.84" endPos="25.84" friendlyPos="true" lines="M42"/>
    <busStop id="-3679405817" name="East 42nd Street &amp; Madison Avenue" lane="-5672991#1_1" startPos="0.00" endPos="10.30" friendlyPos="true" lines="M42"/>
    <busStop id="-3679412804" name="West 42nd Street &amp; 5th Avenue" lane="-438384692#1_1" startPos="42.03" endPos="57.03" friendlyPos="true" lines="M42"/>
    <busStop id="-3679431796" name="East 24th Street &amp; Park Avenue" lane="-438382685#0_1" startPos="0.00" endPos="11.27" friendlyPos="true" lines="M42"/>
    <busStop id="-3679438746" name="East 42 Street &amp; 1st Avenue" lane="-988980353_1" startPos="22.25" endPos="33.80" friendlyPos="true" lines="M42"/>
    <busStop id="-3918987127" name="Grand Central" lane="-821671622_0" startPos="0.00" endPos="100.00" friendlyPos="true" lines="S">
        <access lane="473560251_0" pos="39.82" length="7.16" friendlyPos="1"/>
        <access lane="496995905_0" pos="50.59" length="5.96" friendlyPos="1"/>
        <access lane="5671160#0_0" pos="0.51" length="0.92" friendlyPos="1"/>
        <access lane="5671160#1_0" pos="0.00" length="8.66" friendlyPos="1"/>
        <access lane="5672991#0_0" pos="0.00" length="10.89" friendlyPos="1"/>
    </busStop>
    <busStop id="-4462306214" name="66th Street–Lincoln Center" lane="-525428792_0" startPos="25.65" endPos="225.65" friendlyPos="true">
        <access lane="346613529#5_0" pos="0.00" length="12.70" friendlyPos="1"/>
        <access lane="948627256_0" pos="51.82" length="19.33" friendlyPos="1"/>
        <access lane="948627257#3_0" pos="0.00" length="33.03" friendlyPos="1"/>
        <access lane="948627257#4_0" pos="0.00" length="35.20" friendlyPos="1"/>
        <access lane="993368839#12_0" pos="51.98" length="29.00" friendlyPos="1"/>
    </busStop>
    <busStop id="-4770624020" name="West 34th Street/Broadway" lane="-496982022#0_1" startPos="2.27" endPos="17.27" friendlyPos="true" lines="M34A SBS M34 SBS"/>
    <busStop id="-4770628022" name="West 34th Street &amp; Broadway" lane="-496982023#2_1" startPos="12.06" endPos="27.06" friendlyPos="true" lines="M34 SBS M34A SBS"/>
    <busStop id="-4770628023" name="West 34th Street/Broadway" lane="-496982023#2_1" startPos="13.21" endPos="28.21" friendlyPos="true" lines="M34 SBS M34A SBS"/>
    <busStop id="-4794775932" name="West 57th Street &amp; 7th Avenue" lane="-5672752#0_1" startPos="46.84" endPos="61.84" friendlyPos="true" lines="M31 M57"/>
    <busStop id="-4794775935" name="West 57th Street &amp; 7th Avenue" lane="-5672752#0_1" startPos="30.99" endPos="45.99" friendlyPos="true" lines="M31 M57"/>
    <busStop id="-4796245033" name="Central Park South/Avenue of the Americas" lane="-196116988#0_1" startPos="166.07" endPos="181.07" friendlyPos="true" lines="M5"/>
    <busStop id="-4796245036" name="Central Park South/6th Avenue" lane="-196116988#0_1" startPos="166.07" endPos="181.07" friendlyPos="true" lines="M5"/>
    <busStop id="-4798293326" name="East 60th Street/2nd Avenue" lane="-46211829#1_1" startPos="54.11" endPos="69.11" friendlyPos="true" lines="Q101 Q60"/>
    <busStop id="-4798293327" name="East 60th Street &amp; 2nd Avenue" lane="-46211829#1_1" startPos="54.69" endPos="69.69" friendlyPos="true" lines="Q101 Q60"/>
    <busStop id="-5111471159" name="50th Street" lane="-525428792_0" startPos="1333.38" endPos="1533.38" friendlyPos="true">
        <access lane="-717625448#2_0" pos="65.84" length="39.03" friendlyPos="1"/>
        <access lane="-812949648#4_0" pos="48.97" length="10.45" friendlyPos="1"/>
        <access lane="717625448#0_0" pos="6.19" length="31.23" friendlyPos="1"/>
        <access lane="812949648#3_0" pos="18.69" length="19.75" friendlyPos="1"/>
        <access lane="965833822#14_0" pos="161.23" length="42.88" friendlyPos="1"/>
    </busStop>
    <busStop id="-5111472285" name="59th Street–Columbus Circle" lane="-525428792_0" startPos="599.37" endPos="799.37" friendlyPos="true">
        <access lane="321166645#5_0" pos="32.34" length="14.25" friendlyPos="1"/>
        <access lane="321166645#6_0" pos="0.00" length="10.90" friendlyPos="1"/>
        <access lane="91383966#2_0" pos="24.12" length="13.15" friendlyPos="1"/>
        <access lane="943128934#0_0" pos="2.18" length="15.91" friendlyPos="1"/>
        <access lane="943128934#1_0" pos="0.00" length="8.04" friendlyPos="1"/>
    </busStop>
    <busStop id="-5332358378" name="33rd Street" lane="-552266810_0" startPos="0.00" endPos="100.00" friendlyPos="true">
        <access lane="385107995#0_0" pos="0.20" length="30.44" friendlyPos="1"/>
        <access lane="460606347#1_0" pos="0.00" length="28.32" friendlyPos="1"/>
        <access lane="484170269#1_0" pos="83.31" length="11.37" friendlyPos="1"/>
        <access lane="511809755_0" pos="0.00" length="23.35" friendlyPos="1"/>
        <access lane="693386105#5_0" pos="60.71" length="28.68" friendlyPos="1"/>
    </busStop>
    <busStop id="-5332398711" name="33rd Street" lane="-552266811_0" startPos="0.00" endPos="100.00" friendlyPos="true">
        <access lane="385107995#0_0" pos="0.20" length="17.71" friendlyPos="1"/>
        <access lane="460606347#1_0" pos="0.00" length="16.57" friendlyPos="1"/>
        <access lane="664985025#1_0" pos="0.00" length="19.03" friendlyPos="1"/>
        <access lane="693386105#5_0" pos="60.71" length="16.40" friendlyPos="1"/>
        <access lane="693386105#6_0" pos="0.00" length="20.64" friendlyPos="1"/>
    </busStop>
    <busStop id="-5332398715" name="33rd Street" lane="-552256574_0" startPos="0.00" endPos="100.00" friendlyPos="true">
        <access lane="385107995#0_0" pos="0.20" length="7.57" friendlyPos="1"/>
        <access lane="460606347#1_0" pos="0.00" length="10.10" friendlyPos="1"/>
        <access lane="664985025#1_0" pos="0.00" length="7.42" friendlyPos="1"/>
        <access lane="693386105#5_0" pos="60.71" length="8.39" friendlyPos="1"/>
        <access lane="693386105#6_0" pos="0.00" length="8.38" friendlyPos="1"/>
    </busStop>
    <busStop id="-5492236426" name="New York Penn Station" lane="-571475135_0" startPos="0.00" endPos="100.00" friendlyPos="true">
        <access lane="195743190_0" pos="48.08" length="33.18" friendlyPos="1"/>
        <access lane="464515259#3_0" pos="33.35" length="50.42" friendlyPos="1"/>
        <access lane="464515259#4_0" pos="19.04" length="27.30" friendlyPos="1"/>
        <access lane="541448644_0" pos="16.69" length="9.25" friendlyPos="1"/>
        <access lane="68668556_0" pos="0.00" length="49.34" friendlyPos="1"/>
    </busStop>
    <busStop id="-5492236430" name="New York Penn Station" lane="-571475141_0" startPos="0.00" endPos="100.00" friendlyPos="true">
        <access lane="195743190_0" pos="56.29" length="40.70" friendlyPos="1"/>
        <access lane="464515259#3_0" pos="33.35" length="52.16" friendlyPos="1"/>
        <access lane="464515259#4_0" pos="24.09" length="15.00" friendlyPos="1"/>
        <access lane="541448644_0" pos="11.61" length="3.01" friendlyPos="1"/>
        <access lane="68668556_0" pos="0.00" length="47.35" friendlyPos="1"/>
    </busStop>
    <busStop id="-5492236436" name="New York Penn Station" lane="-571475143_0" startPos="0.00" endPos="100.00" friendlyPos="true">
        <access lane="195743190_0" pos="59.31" length="46.73" friendlyPos="1"/>
        <access lane="464515259#3_0" pos="33.35" length="56.98" friendlyPos="1"/>
        <access lane="464515259#4_0" pos="28.12" length="10.50" friendlyPos="1"/>
        <access lane="541448644_0" pos="7.56" length="7.48" friendlyPos="1"/>
        <access lane="68668556_0" pos="0.00" length="50.72" friendlyPos="1"/>
    </busStop>
    <busStop id="-5492236464" name="New York Penn Station" lane="-571475152_0" startPos="0.00" endPos="100.00" friendlyPos="true">
        <access lane="195743190_0" pos="63.18" length="47.54" friendlyPos="1"/>
        <access lane="464515259#3_0" pos="33.35" length="56.19" friendlyPos="1"/>
        <access lane="464515259#4_0" pos="28.14" length="4.20" friendlyPos="1"/>
        <access lane="541448644_0" pos="7.50" length="22.18" friendlyPos="1"/>
        <access lane="68668556_0" pos="0.00" length="46.99" friendlyPos="1"/>
    </busStop>
    <busStop id="-5551785165" name="23rd Street" lane="-813712317_0" startPos="295.36" endPos="495.36" friendlyPos="true">
        <access lane="196117090#10_0" pos="62.46" length="42.35" friendlyPos="1"/>
        <access lane="196117090#11_0" pos="19.58" length="7.53" friendlyPos="1"/>
        <access lane="420598415_0" pos="259.99" length="81.82" friendlyPos="1"/>
        <access lane="813970417_0" pos="263.03" length="37.96" friendlyPos="1"/>
        <access lane="846122853#0_0" pos="0.00" length="39.77" friendlyPos="1"/>
    </busStop>
    <busStop id="-591997437" name="Times Square" lane="-821671622_0" startPos="290.40" endPos="490.40" friendlyPos="true" lines="S">
        <access lane="-167922072#7_0" pos="37.72" length="26.24" friendlyPos="1"/>
        <access lane="163630203_0" pos="71.45" length="53.29" friendlyPos="1"/>
        <access lane="167922072#7_0" pos="32.89" length="2.54" friendlyPos="1"/>
        <access lane="513706130_0" pos="0.00" length="52.79" friendlyPos="1"/>
        <access lane="702540323#1_0" pos="44.61" length="0.32" friendlyPos="1"/>
    </busStop>
    <busStop id="-6437617424" name="81st Street–Museum of Natural History" lane="813748784#1_0" startPos="987.06" endPos="1187.06" friendlyPos="true"/>
    <busStop id="-6437617425" name="81st Street–Museum of Natural History" lane="689037413#7_0" startPos="459.10" endPos="659.10" friendlyPos="true"/>
    <busStop id="-6437617426" name="86th Street" lane="813748784#1_0" startPos="1555.68" endPos="1755.68" friendlyPos="true"/>
    <busStop id="-6437617428" name="96th Street" lane="813748784#17_0" startPos="0.00" endPos="100.00" friendlyPos="true"/>
    <busStop id="-6437617429" name="96th Street" lane="689037413#1_0" startPos="456.58" endPos="656.58" friendlyPos="true"/>
    <busStop id="-6437617431" name="103rd Street" lane="813748784#17_0" startPos="448.76" endPos="648.76" friendlyPos="true"/>
    <busStop id="-6437617465" name="103rd Street" lane="689037413#1_0" startPos="0.00" endPos="108.15" friendlyPos="true"/>
    <busStop id="-6441849564" name="72nd Street" lane="813748784#1_0" startPos="247.72" endPos="447.72" friendlyPos="true">
        <access lane="-661227257#11_0" pos="0.00" length="5.50" friendlyPos="1"/>
        <access lane="-661227257#14_0" pos="170.39" length="3.85" friendlyPos="1"/>
        <access lane="661227257#12_0" pos="0.00" length="16.64" friendlyPos="1"/>
        <access lane="835983095#0_0" pos="1.39" length="2.62" friendlyPos="1"/>
        <access lane="835983103_0" pos="0.00" length="9.54" friendlyPos="1"/>
    </busStop>
    <busStop id="-6441849565" name="72nd Street" lane="689037413#7_0" startPos="1207.36" endPos="1407.36" friendlyPos="true">
        <access lane="-661227257#14_0" pos="0.00" length="32.80" friendlyPos="1"/>
        <access lane="318474875_0" pos="180.60" length="59.21" friendlyPos="1"/>
        <access lane="332080781_0" pos="0.00" length="82.62" friendlyPos="1"/>
        <access lane="661227257#12_0" pos="170.48" length="36.88" friendlyPos="1"/>
        <access lane="835983090#5_0" pos="160.12" length="56.28" friendlyPos="1"/>
    </busStop>
    <busStop id="-7097455188" name="Grand Central Terminal" lane="-759735449_0" startPos="288.17" endPos="388.17" friendlyPos="true">
        <access lane="113944511_0" pos="19.86" length="24.92" friendlyPos="1"/>
        <access lane="473560295_0" pos="9.84" length="12.53" friendlyPos="1"/>
        <access lane="473560296_0" pos="9.82" length="15.07" friendlyPos="1"/>
        <access lane="473560297_0" pos="11.17" length="17.77" friendlyPos="1"/>
        <access lane="473560298_0" pos="11.17" length="20.58" friendlyPos="1"/>
    </busStop>
    <busStop id="-7097455189" name="Grand Central Terminal" lane="-759771438_0" startPos="264.15" endPos="364.15" friendlyPos="true">
        <access lane="113944511_0" pos="19.86" length="19.15" friendlyPos="1"/>
        <access lane="473560295_0" pos="9.84" length="17.57" friendlyPos="1"/>
        <access lane="473560296_0" pos="9.82" length="20.32" friendlyPos="1"/>
        <access lane="473560297_0" pos="11.17" length="23.16" friendlyPos="1"/>
        <access lane="473560298_0" pos="11.17" length="26.05" friendlyPos="1"/>
    </busStop>
    <busStop id="-7097455194" name="Grand Central Terminal" lane="-759771452_0" startPos="142.50" endPos="242.50" friendlyPos="true">
        <access lane="113944510#3_0" pos="125.46" length="23.46" friendlyPos="1"/>
        <access lane="473560295_0" pos="9.84" length="20.74" friendlyPos="1"/>
        <access lane="473560296_0" pos="9.82" length="18.00" friendlyPos="1"/>
        <access lane="473560297_0" pos="11.17" length="15.32" friendlyPos="1"/>
        <access lane="473560298_0" pos="11.17" length="12.78" friendlyPos="1"/>
    </busStop>
    <busStop id="-7098821378" name="Grand Central Terminal" lane="-759912303_0" startPos="193.75" endPos="293.75" friendlyPos="true">
        <access lane="-380991634#0_0" pos="32.40" length="36.34" friendlyPos="1"/>
        <access lane="380991633_0" pos="66.02" length="26.41" friendlyPos="1"/>
        <access lane="44165033#1_0" pos="84.84" length="39.95" friendlyPos="1"/>
        <access lane="475109056_0" pos="37.42" length="52.49" friendlyPos="1"/>
        <access lane="804078256_0" pos="120.47" length="41.14" friendlyPos="1"/>
    </busStop>
    <busStop id="-7098828762" name="Grand Central Terminal" lane="-759912309_0" startPos="273.27" endPos="373.27" friendlyPos="true">
        <access lane="-380991634#0_0" pos="32.25" length="12.13" friendlyPos="1"/>
        <access lane="380991633_0" pos="82.16" length="26.03" friendlyPos="1"/>
        <access lane="380991639#1_0" pos="0.00" length="45.45" friendlyPos="1"/>
        <access lane="44165033#1_0" pos="84.91" length="15.73" friendlyPos="1"/>
        <access lane="804078256_0" pos="120.62" length="16.93" friendlyPos="1"/>
    </busStop>
    <busStop id="-7098828765" name="Grand Central Terminal" lane="-759912333_0" startPos="272.67" endPos="372.67" friendlyPos="true">
        <access lane="-380991634#0_0" pos="32.09" length="0.37" friendlyPos="1"/>
        <access lane="380991633_0" pos="90.28" length="25.71" friendlyPos="1"/>
        <access lane="380991639#1_0" pos="0.00" length="37.31" friendlyPos="1"/>
        <access lane="44165033#1_0" pos="84.87" length="3.23" friendlyPos="1"/>
        <access lane="804078256_0" pos="120.77" length="4.43" friendlyPos="1"/>
    </busStop>
    <busStop id="-7098828768" name="Grand Central Terminal" lane="-759912312_0" startPos="312.47" endPos="412.47" friendlyPos="true">
        <access lane="-380991634#0_0" pos="32.14" length="5.24" friendlyPos="1"/>
        <access lane="380991633_0" pos="90.28" length="26.27" friendlyPos="1"/>
        <access lane="380991639#1_0" pos="0.00" length="34.99" friendlyPos="1"/>
        <access lane="44165033#1_0" pos="84.96" length="1.64" friendlyPos="1"/>
        <access lane="804078256_0" pos="120.73" length="0.44" friendlyPos="1"/>
    </busStop>
    <busStop id="-7098828771" name="Grand Central Terminal" lane="-759912334_0" startPos="311.81" endPos="411.81" friendlyPos="true">
        <access lane="-380991634#0_0" pos="32.00" length="18.66" friendlyPos="1"/>
        <access lane="113944510#3_0" pos="121.07" length="31.08" friendlyPos="1"/>
        <access lane="380991633_0" pos="96.37" length="30.17" friendlyPos="1"/>
        <access lane="44165033#1_0" pos="84.94" length="15.06" friendlyPos="1"/>
        <access lane="804078256_0" pos="120.87" length="13.86" friendlyPos="1"/>
    </busStop>
    <busStop id="-7098828774" name="Grand Central Terminal" lane="-759912335_0" startPos="349.47" endPos="449.47" friendlyPos="true">
        <access lane="-380991634#0_0" pos="32.04" length="24.45" friendlyPos="1"/>
        <access lane="113944510#3_0" pos="121.05" length="25.29" friendlyPos="1"/>
        <access lane="380991639#1_0" pos="2.31" length="31.41" friendlyPos="1"/>
        <access lane="44165033#1_0" pos="85.02" length="20.85" friendlyPos="1"/>
        <access lane="804078256_0" pos="120.83" length="19.65" friendlyPos="1"/>
    </busStop>
    <busStop id="-7098828777" name="Grand Central Terminal" lane="-759912336_0" startPos="348.73" endPos="448.73" friendlyPos="true">
        <access lane="-380991634#0_0" pos="31.91" length="36.95" friendlyPos="1"/>
        <access lane="113944510#3_0" pos="121.20" length="12.79" friendlyPos="1"/>
        <access lane="380991639#1_0" pos="10.64" length="31.42" friendlyPos="1"/>
        <access lane="44165033#1_0" pos="85.01" length="33.35" friendlyPos="1"/>
        <access lane="804078256_0" pos="120.96" length="32.15" friendlyPos="1"/>
    </busStop>
    <busStop id="-7098828780" name="Grand Central Terminal" lane="-759912337_0" startPos="142.73" endPos="242.73" friendlyPos="true">
        <access lane="113944510#3_0" pos="121.41" length="17.85" friendlyPos="1"/>
        <access lane="473560295_0" pos="9.84" length="26.22" friendlyPos="1"/>
        <access lane="473560296_0" pos="9.82" length="23.39" friendlyPos="1"/>
        <access lane="473560297_0" pos="11.17" length="20.57" friendlyPos="1"/>
        <access lane="473560298_0" pos="11.17" length="17.79" friendlyPos="1"/>
    </busStop>
    <busStop id="-7098828783" name="Grand Central Terminal" lane="-759735511_0" startPos="211.48" endPos="311.48" friendlyPos="true">
        <access lane="113944510#3_0" pos="121.28" length="5.35" friendlyPos="1"/>
        <access lane="380991639#1_0" pos="19.18" length="32.10" friendlyPos="1"/>
        <access lane="380991639#2_0" pos="0.00" length="31.67" friendlyPos="1"/>
        <access lane="473560297_0" pos="11.17" length="32.56" friendlyPos="1"/>
        <access lane="473560298_0" pos="11.17" length="29.63" friendlyPos="1"/>
    </busStop>
    <busStop id="-7098829004" name="Grand Central Terminal" lane="-759912306_0" startPos="194.47" endPos="294.47" friendlyPos="true">
        <access lane="-380991634#0_0" pos="32.13" length="47.37" friendlyPos="1"/>
        <access lane="380991633_0" pos="58.67" length="26.08" friendlyPos="1"/>
        <access lane="44165033#1_0" pos="84.48" length="50.97" friendlyPos="1"/>
        <access lane="475109056_0" pos="44.77" length="52.06" friendlyPos="1"/>
        <access lane="804078256_0" pos="120.74" length="52.17" friendlyPos="1"/>
    </busStop>
    <busStop id="-7098829007" name="Grand Central Terminal" lane="-759912332_0" startPos="244.18" endPos="344.18" friendlyPos="true">
        <access lane="-380991634#0_0" pos="32.19" length="17.92" friendlyPos="1"/>
        <access lane="380991633_0" pos="78.30" length="25.97" friendlyPos="1"/>
        <access lane="44165033#1_0" pos="84.80" length="21.52" friendlyPos="1"/>
        <access lane="473560394#0_0" pos="0.00" length="49.40" friendlyPos="1"/>
        <access lane="804078256_0" pos="120.68" length="22.72" friendlyPos="1"/>
    </busStop>
    <busStop id="-7098829009" name="Grand Central Terminal" lane="-759912302_0" startPos="245.03" endPos="345.03" friendlyPos="true">
        <access lane="-380991634#0_0" pos="32.36" length="30.42" friendlyPos="1"/>
        <access lane="380991633_0" pos="69.97" length="26.31" friendlyPos="1"/>
        <access lane="44165033#1_0" pos="84.85" length="34.03" friendlyPos="1"/>
        <access lane="475109056_0" pos="33.47" length="52.45" friendlyPos="1"/>
        <access lane="804078256_0" pos="120.51" length="35.22" friendlyPos="1"/>
    </busStop>
    <busStop id="-7098931601" name="Grand Central Terminal" lane="-759927875_0" startPos="291.21" endPos="391.21" friendlyPos="true">
        <access lane="113944511_0" pos="19.74" length="24.48" friendlyPos="1"/>
        <access lane="380991639#4_0" pos="0.27" length="39.88" friendlyPos="1"/>
        <access lane="380992602#2_0" pos="35.55" length="32.02" friendlyPos="1"/>
        <access lane="511699179_0" pos="28.17" length="30.74" friendlyPos="1"/>
        <access lane="609596058_0" pos="226.12" length="24.60" friendlyPos="1"/>
    </busStop>
    <busStop id="-7098931604" name="Grand Central Terminal" lane="-759927890_0" startPos="271.99" endPos="371.99" friendlyPos="true">
        <access lane="-511699179_0" pos="25.60" length="6.97" friendlyPos="1"/>
        <access lane="46520921#0_0" pos="0.00" length="52.25" friendlyPos="1"/>
        <access lane="511699179_0" pos="41.43" length="5.63" friendlyPos="1"/>
        <access lane="5672149#1_0" pos="74.88" length="44.36" friendlyPos="1"/>
        <access lane="609596058_0" pos="213.36" length="12.02" friendlyPos="1"/>
    </busStop>
    <busStop id="-7098931608" name="Grand Central Terminal" lane="-759927891_0" startPos="253.75" endPos="353.75" friendlyPos="true">
        <access lane="-511699179_0" pos="25.69" length="25.26" friendlyPos="1"/>
        <access lane="113944511_0" pos="32.82" length="42.69" friendlyPos="1"/>
        <access lane="380992602#2_0" pos="23.41" length="51.66" friendlyPos="1"/>
        <access lane="511699179_0" pos="41.33" length="12.66" friendlyPos="1"/>
        <access lane="609596058_0" pos="213.30" length="6.26" friendlyPos="1"/>
    </busStop>
    <busStop id="-7098931613" name="Grand Central Terminal" lane="-759927892_0" startPos="254.40" endPos="354.40" friendlyPos="true">
        <access lane="-511699179_0" pos="25.73" length="19.53" friendlyPos="1"/>
        <access lane="113944511_0" pos="32.75" length="48.42" friendlyPos="1"/>
        <access lane="511699179_0" pos="41.29" length="6.93" friendlyPos="1"/>
        <access lane="5672149#1_0" pos="74.88" length="49.30" friendlyPos="1"/>
        <access lane="609596058_0" pos="213.39" length="0.53" friendlyPos="1"/>
    </busStop>
    <busStop id="-7098931614" name="Grand Central Terminal" lane="-759927880_0" startPos="0.00" endPos="100.00" friendlyPos="true">
        <access lane="-511699179_0" pos="25.81" length="37.82" friendlyPos="1"/>
        <access lane="113944511_0" pos="32.75" length="30.13" friendlyPos="1"/>
        <access lane="380992602#2_0" pos="31.79" length="51.55" friendlyPos="1"/>
        <access lane="511699179_0" pos="41.21" length="25.22" friendlyPos="1"/>
        <access lane="609596058_0" pos="213.31" length="18.82" friendlyPos="1"/>
    </busStop>
    <busStop id="-7098931619" name="Grand Central Terminal" lane="-759927874_0" startPos="221.50" endPos="321.50" friendlyPos="true">
        <access lane="113944511_0" pos="19.86" length="11.66" friendlyPos="1"/>
        <access lane="380991639#3_0" pos="19.15" length="36.86" friendlyPos="1"/>
        <access lane="380991639#4_0" pos="0.27" length="33.96" friendlyPos="1"/>
        <access lane="380992602#2_0" pos="44.09" length="32.19" friendlyPos="1"/>
        <access lane="609596058_0" pos="225.95" length="37.41" friendlyPos="1"/>
    </busStop>
    <busStop id="-7098931622" name="Grand Central Terminal" lane="-759927893_0" startPos="220.36" endPos="320.36" friendlyPos="true">
        <access lane="113944511_0" pos="19.86" length="6.63" friendlyPos="1"/>
        <access lane="380991639#3_0" pos="18.90" length="31.85" friendlyPos="1"/>
        <access lane="380991639#4_0" pos="0.00" length="32.79" friendlyPos="1"/>
        <access lane="473560295_0" pos="9.84" length="29.44" friendlyPos="1"/>
        <access lane="473560296_0" pos="9.82" length="32.33" friendlyPos="1"/>
    </busStop>
    <busStop id="-7098974468" name="Grand Central Terminal" lane="-804074071_0" startPos="292.11" endPos="392.11" friendlyPos="true">
        <access lane="473560294#1_0" pos="3.33" length="24.40" friendlyPos="1"/>
        <access lane="473560295_0" pos="9.84" length="10.90" friendlyPos="1"/>
        <access lane="473560296_0" pos="9.82" length="8.89" friendlyPos="1"/>
        <access lane="473560297_0" pos="11.17" length="7.53" friendlyPos="1"/>
        <access lane="473560298_0" pos="11.17" length="7.25" friendlyPos="1"/>
    </busStop>
    <busStop id="-7099088056" name="Grand Central Terminal" lane="-804074067_0" startPos="396.09" endPos="496.09" friendlyPos="true">
        <access lane="113944511_0" pos="19.71" length="23.36" friendlyPos="1"/>
        <access lane="380991639#4_0" pos="0.27" length="39.20" friendlyPos="1"/>
        <access lane="380992602#2_0" pos="36.29" length="31.99" friendlyPos="1"/>
        <access lane="511699179_0" pos="28.14" length="31.86" friendlyPos="1"/>
        <access lane="609596058_0" pos="226.14" length="25.72" friendlyPos="1"/>
    </busStop>