<?xml version="1.0" encoding="UTF-8"?>
<!-- generated on 2021-10-22 19:59:30 by Eclipse SUMO duarouter Version 1.10.0
<configuration xmlns:xsi="http://www.w3.org/2001/XMLSchema-instance" xsi:noNamespaceSchemaLocation="http://sumo.dlr.de/xsd/duarouterConfiguration.xsd">

    <input>
        <net-file value="C:\Users\diani\Sumo\2021-10-22-19-57-50\osm.net.xml"/>
        <additional-files value="C:\Users\diani\Sumo\2021-10-22-19-57-50\osm_stops.add.xml,C:\Users\diani\Sumo\2021-10-22-19-57-50\osm_pt.rou.xml"/>
        <route-files value="C:\Users\diani\Sumo\2021-10-22-19-57-50\osm.pedestrian.trips.xml"/>
    </input>

    <output>
        <output-file value="C:\Users\diani\Sumo\2021-10-22-19-57-50\osm.pedestrian.rou.xml"/>
        <alternatives-output value="C:\Users\diani\Sumo\2021-10-22-19-57-50\osm.pedestrian.rou.alt.xml"/>
    </output>

    <time>
        <begin value="0"/>
        <end value="3600"/>
    </time>

    <report>
        <no-warnings value="true"/>
        <ignore-errors value="true"/>
        <no-step-log value="true"/>
    </report>

</configuration>
-->
<routes xmlns:xsi="http://www.w3.org/2001/XMLSchema-instance" xsi:noNamespaceSchemaLocation="http://sumo.dlr.de/xsd/routes_file.xsd">
    <vType id="ped_pedestrian" vClass="pedestrian"/>
    <person id="ped0" type="ped_pedestrian" depart="0.3">
        <ride intended="29_subway_A:1" depart="0.8"/>
    </person>
    
    <person id="ped1" type="ped_pedestrian" depart="0.12">
        <walk edges="2704048114" busStop="152_bus_M15-SBS:1"/>
        <ride intended="43_train_Harlem:0" depart="0.11"/>
    </person>
    
    <person id="ped2" type="ped_pedestrian" depart="0.20">
        <walk edges="2709347175" busStop="122_bus_M15:0"/>
        <ride intended="134_subway_D:4" depart="0.28"/>
    </person>
    
    <person id="ped3" type="ped_pedestrian" depart="0.21">
        <walk edges="2984312927" busStop="127_bus_M11:1"/>
        <ride intended="31_subway_D:1" depart="0.28"/>
    </person>
    
    <person id="ped4" type="ped_pedestrian" depart="0.25">
        <walk edges="2710114980" busStop="86_bus_Q32:0"/>
        <ride intended="174_subway_R:1" depart="0.31"/>
    </person>
    
    <person id="ped5" type="ped_pedestrian" depart="0.27">
        <walk edges="2569262728" busStop="127_bus_M11:1"/>
        <ride intended="27_subway_4:1" depart="0.34"/>
    </person>
    
    <person id="ped6" type="ped_pedestrian" depart="0.30">
        <walk edges="1251496242" busStop="86_bus_Q32:0"/>
        <ride intended="134_subway_D:4" depart="0.44"/>
    </person>
    
    <person id="ped7" type="ped_pedestrian" depart="0.34">
        <walk edges="368055855" busStop="126_bus_M5:1"/>
        <ride intended="60_train_66:0" depart="0.44"/>
    </person>
    
    <person id="ped8" type="ped_pedestrian" depart="0.36">
        <walk edges="2569267182" busStop="117_bus_M14A_SBS:1"/>
        <ride intended="174_subway_R:1" depart="0.49"/>
    </person>
    
    <person id="ped9" type="ped_pedestrian" depart="0.48">
        <walk edges="2703025237" busStop="117_bus_M14A_SBS:1"/>
        <ride intended="58_train_141+143:0" depart="0.52"/>
    </person>
    
    <person id="ped10" type="ped_pedestrian" depart="0.52">
        <walk edges="2569266979" busStop="127_bus_M11:1"/>
        <ride intended="36_subway_E:2" depart="1.2"/>
    </person>
    
    <person id="ped11" type="ped_pedestrian" depart="0.55">
        <walk edges="2714923809" busStop="96_bus_M50:0"/>
        <ride intended="138_subway_5:4" depart="1.5"/>
    </person>
    
    <person id="ped12" type="ped_pedestrian" depart="0.58">
        <walk edges="2717546331" busStop="114_bus_M50:1"/>
        <ride intended="173_subway_R:0" depart="1.4"/>
    </person>
    
    <person id="ped13" type="ped_pedestrian" depart="1.1">
        <walk edges="7098974470" busStop="86_bus_Q32:0"/>
        <ride intended="155_subway_2:2" depart="1.8"/>
    </person>
    
    <person id="ped14" type="ped_pedestrian" depart="1.19">
        <walk edges="6923621220" busStop="117_bus_M14A_SBS:1"/>
        <ride intended="39_subway_N:1" depart="1.23"/>
    </person>
    
    <person id="ped15" type="ped_pedestrian" depart="1.33">
        <walk edges="6157219589" busStop="126_bus_M5:1"/>
        <ride intended="36_subway_E:2" depart="1.36"/>
    </person>
    
    <person id="ped16" type="ped_pedestrian" depart="1.41">
        <walk edges="4347534782" busStop="86_bus_Q32:0"/>
        <ride intended="159_subway_5:5" depart="1.45"/>
    </person>
    
    <person id="ped17" type="ped_pedestrian" depart="1.43">
        <walk edges="2921695402" busStop="117_bus_M14A_SBS:1"/>
        <ride intended="140_subway_3:0" depart="1.49"/>
    </person>
    
    <person id="ped18" type="ped_pedestrian" depart="2.11">
        <walk edges="6598534858" busStop="96_bus_M50:0"/>
        <ride intended="199_subway_4:5" depart="2.15"/>
    </person>
    
    <person id="ped19" type="ped_pedestrian" depart="2.25">
        <walk edges="6597464538" busStop="89_bus_M42:0"/>
        <ride intended="147_subway_2:1" depart="2.31"/>
    </person>
    
    <person id="ped20" type="ped_pedestrian" depart="2.48">
        <walk edges="6139477296" busStop="122_bus_M15:0"/>
        <ride intended="105_train_New_Haven:0" depart="2.55"/>
    </person>
    
    <person id="ped21" type="ped_pedestrian" depart="2.53">
        <walk edges="5890772454" busStop="116_bus_M42:1"/>
        <ride intended="42_subway_Q:1" depart="3.0"/>
    </person>
    
    <person id="ped22" type="ped_pedestrian" depart="3.3">
        <walk edges="2709630326" busStop="89_bus_M42:0"/>
        <ride intended="55_train_146:0" depart="3.17"/>
    </person>
    
    <person id="ped23" type="ped_pedestrian" depart="3.5">
        <walk edges="2569270055" busStop="127_bus_M11:1"/>
        <ride intended="191_subway_C:1" depart="3.11"/>
    </person>
    
    <person id="ped24" type="ped_pedestrian" depart="3.14">
        <walk edges="2723661659" busStop="97_bus_M66:0"/>
        <ride intended="133_subway_B:0" depart="3.17"/>
    </person>
    
    <person id="ped25" type="ped_pedestrian" depart="3.28">
        <walk edges="8522632821" busStop="0_bus_2602:0"/>
        <ride intended="21_subway_F:1" depart="3.34"/>
    </person>
    
    <person id="ped26" type="ped_pedestrian" depart="3.28">
        <walk edges="4555620972" busStop="117_bus_M14A_SBS:1"/>
        <ride intended="112_train_Port_Washington:0" depart="3.34"/>
    </person>
    
    <person id="ped27" type="ped_pedestrian" depart="3.36">
        <walk edges="2899082415" busStop="86_bus_Q32:0"/>
        <ride intended="155_subway_2:2" depart="3.38"/>
    </person>
    
    <person id="ped28" type="ped_pedestrian" depart="3.43">
        <walk edges="2505255397" busStop="116_bus_M42:1"/>
        <ride intended="199_subway_4:5" depart="3.53"/>
    </person>
    
    <person id="ped29" type="ped_pedestrian" depart="4.6">
        <walk edges="2710238902" busStop="114_bus_M50:1"/>
        <ride intended="144_train_64:0" depart="4.13"/>
    </person>
    
    <person id="ped30" type="ped_pedestrian" depart="4.16">
        <walk edges="4588965805" busStop="86_bus_Q32:0"/>
        <ride intended="154_subway_1:1" depart="4.20"/>
    </person>
    
    <person id="ped31" type="ped_pedestrian" depart="4.21">
        <walk edges="2711394962" busStop="96_bus_M50:0"/>
        <ride intended="168_subway_W:0" depart="4.27"/>
    </person>
    
    <person id="ped32" type="ped_pedestrian" depart="4.30">
        <walk edges="2673212093" busStop="96_bus_M50:0"/>
        <ride intended="164_subway_6:0" depart="4.36"/>
    </person>
    
    <person id="ped33" type="ped_pedestrian" depart="5.10">
        <walk edges="2114001662" busStop="126_bus_M5:1"/>
        <ride intended="174_subway_R:1" depart="5.19"/>
    </person>
    
    <person id="ped34" type="ped_pedestrian" depart="5.38">
        <walk edges="7139825362" busStop="126_bus_M5:1"/>
        <ride intended="20_subway_F:0" depart="5.43"/>
    </person>
    
    <person id="ped35" type="ped_pedestrian" depart="5.38">
        <walk edges="7139825362" busStop="126_bus_M5:1"/>
        <ride intended="191_subway_C:1" depart="5.42"/>
    </person>
    
    <person id="ped36" type="ped_pedestrian" depart="5.42">
        <walk edges="2569261843" busStop="127_bus_M11:1"/>
        <ride intended="196_subway_B:2" depart="5.50"/>
    </person>
    
    <person id="ped37" type="ped_pedestrian" depart="5.50">
        <walk edges="2710114694" busStop="86_bus_Q32:0"/>
        <ride intended="37_subway_E:3" depart="6.1"/>
    </person>
    
    <person id="ped38" type="ped_pedestrian" depart="5.52">
        <walk edges="4632382674" busStop="90_bus_M23_SBS:0"/>
        <ride intended="187_subway_A:6" depart="5.57"/>
    </person>
    
    <person id="ped39" type="ped_pedestrian" depart="5.52">
        <walk edges="2682336580" busStop="96_bus_M50:0"/>
        <ride intended="158_subway_4:3" depart="5.57"/>
    </person>
    
    <person id="ped40" type="ped_pedestrian" depart="5.55">
        <walk edges="1578696302" busStop="151_bus_M15-SBS:0"/>
        <ride intended="180_subway_6:2" depart="6.7"/>
    </person>
    
    <person id="ped41" type="ped_pedestrian" depart="5.58">
        <walk edges="2703075177" busStop="0_bus_2602:0"/>
        <ride intended="160_subway_5:6" depart="6.0"/>
    </person>
    
    <person id="ped42" type="ped_pedestrian" depart="6.4">
        <walk edges="2711137467" busStop="122_bus_M15:0"/>
        <ride intended="22_subway_5:0" depart="6.10"/>
    </person>
    
    <person id="ped43" type="ped_pedestrian" depart="6.8">
        <walk edges="2702831831" busStop="142_bus_M12:1"/>
        <ride intended="199_subway_4:5" depart="6.19"/>
    </person>
    
    <person id="ped44" type="ped_pedestrian" depart="6.10">
        <walk edges="2702831922" busStop="117_bus_M14A_SBS:1"/>
        <ride intended="178_subway_N:5" depart="6.14"/>
    </person>
    
    <person id="ped45" type="ped_pedestrian" depart="6.14">
        <walk edges="2711394616" busStop="96_bus_M50:0"/>
        <ride intended="199_subway_4:5" depart="6.18"/>
    </person>
    
    <person id="ped46" type="ped_pedestrian" depart="6.15">
        <walk edges="419363048" busStop="126_bus_M5:1"/>
        <ride intended="133_subway_B:0" depart="6.19"/>
    </person>
    
    <person id="ped47" type="ped_pedestrian" depart="6.29">
        <walk edges="2549961406" busStop="0_bus_2602:0"/>
        <ride intended="169_subway_N:3" depart="6.30"/>
    </person>
    
    <person id="ped48" type="ped_pedestrian" depart="6.35">
        <walk edges="2868082195" busStop="121_bus_M104:0"/>
        <ride intended="147_subway_2:1" depart="6.41"/>
    </person>
    
    <person id="ped49" type="ped_pedestrian" depart="6.43">
        <walk edges="2827088940" busStop="151_bus_M15-SBS:0"/>
        <ride intended="182_subway_7:2" depart="6.48"/>
    </person>
    
    <person id="ped50" type="ped_pedestrian" depart="6.46">
        <walk edges="2708096129" busStop="92_bus_M5:0"/>
        <ride intended="36_subway_E:2" depart="6.51"/>
    </person>
    
    <person id="ped51" type="ped_pedestrian" depart="6.51">
        <walk edges="2643931562" busStop="89_bus_M42:0"/>
        <ride intended="18_subway_S:0" depart="6.52"/>
    </person>
    
    <person id="ped52" type="ped_pedestrian" depart="6.55">
        <walk edges="2549949013" busStop="126_bus_M5:1"/>
        <ride intended="154_subway_1:1" depart="7.5"/>
    </person>
    
    <person id="ped53" type="ped_pedestrian" depart="6.57">
        <walk edges="370914027" busStop="153_bus_M15:1"/>
        <ride intended="186_subway_A:5" depart="7.6"/>
    </person>
    
    <person id="ped54" type="ped_pedestrian" depart="7.3">
        <walk edges="5331099973" busStop="122_bus_M15:0"/>
        <ride intended="58_train_141+143:0" depart="7.9"/>
    </person>
    
    <person id="ped55" type="ped_pedestrian" depart="7.6">
        <walk edges="2704048092" busStop="152_bus_M15-SBS:1"/>
        <ride intended="23_subway_5:1" depart="7.9"/>
    </person>
    
    <person id="ped56" type="ped_pedestrian" depart="7.15">
        <walk edges="6223524378" busStop="119_bus_M34_SBS:1"/>
        <ride intended="176_subway_Q:3" depart="7.20"/>
    </person>
    
    <person id="ped57" type="ped_pedestrian" depart="7.17">
        <walk edges="2653705040" busStop="128_bus_M7:1"/>
        <ride intended="175_subway_Q:2" depart="7.25"/>
    </person>
    
    <person id="ped58" type="ped_pedestrian" depart="7.22">
        <walk edges="2704034839" busStop="152_bus_M15-SBS:1"/>
        <ride intended="28_subway_A:0" depart="7.28"/>
    </person>
    
    <person id="ped59" type="ped_pedestrian" depart="7.25">
        <walk edges="2703043990" busStop="126_bus_M5:1"/>
        <ride intended="27_subway_4:1" depart="7.33"/>
    </person>
    
    <person id="ped60" type="ped_pedestrian" depart="7.30">
        <walk edges="2704093215" busStop="122_bus_M15:0"/>
        <ride intended="37_subway_E:3" depart="7.30"/>
    </person>
    
    <person id="ped61" type="ped_pedestrian" depart="7.30">
        <walk edges="1593915781" busStop="114_bus_M50:1"/>
        <ride intended="198_subway_4:4" depart="7.37"/>
    </person>
    
    <person id="ped62" type="ped_pedestrian" depart="7.35">
        <walk edges="2569264014" busStop="127_bus_M11:1"/>
        <ride intended="36_subway_E:2" depart="7.43"/>
    </person>
    
    <person id="ped63" type="ped_pedestrian" depart="7.38">
        <walk edges="2930941615" busStop="92_bus_M5:0"/>
        <ride intended="22_subway_5:0" depart="7.47"/>
    </person>
    
    <person id="ped64" type="ped_pedestrian" depart="7.39">
        <walk edges="419360690" busStop="152_bus_M15-SBS:1"/>
        <ride intended="21_subway_F:1" depart="7.44"/>
    </person>
    
    <person id="ped65" type="ped_pedestrian" depart="7.40">
        <walk edges="2897201885" busStop="86_bus_Q32:0"/>
        <ride intended="147_subway_2:1" depart="7.41"/>
    </person>
    
    <person id="ped66" type="ped_pedestrian" depart="7.46">
        <walk edges="8429213037" busStop="117_bus_M14A_SBS:1"/>
        <ride intended="42_subway_Q:1" depart="7.51"/>
    </person>
    
    <person id="ped67" type="ped_pedestrian" depart="7.50">
        <walk edges="3669209433" busStop="121_bus_M104:0"/>
        <ride intended="138_subway_5:4" depart="7.54"/>
    </person>
    
    <person id="ped68" type="ped_pedestrian" depart="7.58">
        <walk edges="2549961262" busStop="0_bus_2602:0"/>
        <ride intended="192_subway_D:5" depart="8.4"/>
    </person>
    
    <person id="ped69" type="ped_pedestrian" depart="8.5">
        <walk edges="2708095800" busStop="96_bus_M50:0"/>
        <ride intended="20_subway_F:0" depart="8.11"/>
    </person>
    
    <person id="ped70" type="ped_pedestrian" depart="8.10">
        <walk edges="3564892565" busStop="117_bus_M14A_SBS:1"/>
        <ride intended="133_subway_B:0" depart="8.15"/>
    </person>
    
    <person id="ped71" type="ped_pedestrian" depart="8.13">
        <walk edges="2717543575" busStop="114_bus_M50:1"/>
        <ride intended="138_subway_5:4" depart="8.21"/>
    </person>
    
    <person id="ped72" type="ped_pedestrian" depart="8.19">
        <walk edges="2569261283" busStop="127_bus_M11:1"/>
        <ride intended="158_subway_4:3" depart="8.28"/>
    </person>
    
    <person id="ped73" type="ped_pedestrian" depart="8.21">
        <walk edges="2717542720" busStop="114_bus_M50:1"/>
        <ride intended="162_subway_S:2" depart="8.24"/>
    </person>
    
    <person id="ped74" type="ped_pedestrian" depart="8.24">
        <walk edges="419367632" busStop="152_bus_M15-SBS:1"/>
        <ride intended="165_subway_6:1" depart="8.31"/>
    </person>
    
    <person id="ped75" type="ped_pedestrian" depart="8.28">
        <walk edges="2710091427" busStop="86_bus_Q32:0"/>
        <ride intended="164_subway_6:0" depart="8.38"/>
    </person>
    
    <person id="ped76" type="ped_pedestrian" depart="8.38">
        <walk edges="2569266800" busStop="127_bus_M11:1"/>
        <ride intended="39_subway_N:1" depart="8.43"/>
    </person>
    
    <person id="ped77" type="ped_pedestrian" depart="8.42">
        <walk edges="7820953444" busStop="86_bus_Q32:0"/>
        <ride intended="34_subway_E:0" depart="8.55"/>
    </person>
    
    <person id="ped78" type="ped_pedestrian" depart="8.45">
        <walk edges="2036893287" busStop="152_bus_M15-SBS:1"/>
        <ride intended="175_subway_Q:2" depart="8.50"/>
    </person>
    
    <person id="ped79" type="ped_pedestrian" depart="8.53">
        <walk edges="2853038245" busStop="96_bus_M50:0"/>
        <ride intended="20_subway_F:0" depart="9.2"/>
    </person>
    
    <person id="ped80" type="ped_pedestrian" depart="8.54">
        <walk edges="2562374889" busStop="152_bus_M15-SBS:1"/>
        <ride intended="80_train_167:0" depart="9.1"/>
    </person>
    
    <person id="ped81" type="ped_pedestrian" depart="8.54">
        <walk edges="2703033011" busStop="117_bus_M14A_SBS:1"/>
        <ride intended="189_subway_B:1" depart="9.1"/>
    </person>
    
    <person id="ped82" type="ped_pedestrian" depart="8.59">
        <walk edges="6597498413" busStop="89_bus_M42:0"/>
        <ride intended="35_subway_E:1" depart="9.2"/>
    </person>
    
    <person id="ped83" type="ped_pedestrian" depart="9.1">
        <walk edges="2967754037" busStop="122_bus_M15:0"/>
        <ride intended="154_subway_1:1" depart="9.8"/>
    </person>
    
    <person id="ped84" type="ped_pedestrian" depart="9.1">
        <walk edges="2709703760" busStop="89_bus_M42:0"/>
        <ride intended="36_subway_E:2" depart="9.7"/>
    </person>
    
    <person id="ped85" type="ped_pedestrian" depart="9.8">
        <walk edges="2441704591" busStop="126_bus_M5:1"/>
        <ride intended="138_subway_5:4" depart="9.17"/>
    </person>
    
    <person id="ped86" type="ped_pedestrian" depart="9.9">
        <walk edges="2377128180" busStop="117_bus_M14A_SBS:1"/>
        <ride intended="132_subway_M:0" depart="9.16"/>
    </person>
    
    <person id="ped87" type="ped_pedestrian" depart="9.15">
        <walk edges="2549961468" busStop="0_bus_2602:0"/>
        <ride intended="176_subway_Q:3" depart="9.24"/>
    </person>
    
    <person id="ped88" type="ped_pedestrian" depart="9.17">
        <walk edges="4464067406" busStop="0_bus_2602:0"/>
        <ride intended="181_subway_6:3" depart="9.24"/>
    </person>
    
    <person id="ped89" type="ped_pedestrian" depart="9.17">
        <walk edges="7098829001" busStop="89_bus_M42:0"/>
        <ride intended="113_train_North_Jersey_Coast:0" depart="9.23"/>
    </person>
    
    <person id="ped90" type="ped_pedestrian" depart="9.21">
        <walk edges="2714855583" busStop="86_bus_Q32:0"/>
        <ride intended="161_subway_5:7" depart="9.26"/>
    </person>
    
    <person id="ped91" type="ped_pedestrian" depart="9.22">
        <walk edges="5481850675" busStop="126_bus_M5:1"/>
        <ride intended="30_subway_D:0" depart="9.30"/>
    </person>
    
    <person id="ped92" type="ped_pedestrian" depart="9.23">
        <walk edges="8310246340" busStop="117_bus_M14A_SBS:1"/>
        <ride intended="197_subway_B:3" depart="9.34"/>
    </person>
    
    <person id="ped93" type="ped_pedestrian" depart="9.23">
        <walk edges="7964920722" busStop="116_bus_M42:1"/>
        <ride intended="200_subway_3:2" depart="9.34"/>
    </person>
    
    <person id="ped94" type="ped_pedestrian" depart="9.27">
        <walk edges="6597473556" busStop="89_bus_M42:0"/>
        <ride intended="25_subway_5:3" depart="9.32"/>
    </person>
    
    <person id="ped95" type="ped_pedestrian" depart="9.39">
        <walk edges="2723661521" busStop="86_bus_Q32:0"/>
        <ride intended="164_subway_6:0" depart="9.42"/>
    </person>
    
    <person id="ped96" type="ped_pedestrian" depart="9.49">
        <walk edges="1487523545" busStop="92_bus_M5:0"/>
        <ride intended="18_subway_S:0" depart="9.57"/>
    </person>
    
    <person id="ped97" type="ped_pedestrian" depart="9.55">
        <walk edges="2723661020" busStop="86_bus_Q32:0"/>
        <ride intended="133_subway_B:0" depart="10.1"/>
    </person>
    
    <person id="ped98" type="ped_pedestrian" depart="9.57">
        <walk edges="419360601" busStop="116_bus_M42:1"/>
        <ride intended="40_subway_N:2" depart="10.5"/>
    </person>
    
    <person id="ped99" type="ped_pedestrian" depart="9.57">
        <walk edges="6188803959" busStop="86_bus_Q32:0"/>
        <ride intended="171_subway_W:1" depart="10.7"/>
    </person>
</routes>