<?xml version="1.0" encoding="UTF-8"?>

<!-- generated on 2021-10-27 12:07:36 by Eclipse SUMO duarouter Version 1.10.0
<configuration xmlns:xsi="http://www.w3.org/2001/XMLSchema-instance" xsi:noNamespaceSchemaLocation="http://sumo.dlr.de/xsd/duarouterConfiguration.xsd">

    <input>
        <net-file value="/Users/nicolas/2021-10-27-12-03-56/osm.net.xml"/>
        <route-files value="/Users/nicolas/2021-10-27-12-03-56/osm.passenger.trips.xml"/>
    </input>

    <output>
        <output-file value="/Users/nicolas/2021-10-27-12-03-56/osm.passenger.trips.xml.tmp"/>
        <write-trips value="true"/>
    </output>

    <time>
        <begin value="0"/>
        <end value="3600"/>
    </time>

    <report>
        <no-warnings value="true"/>
        <ignore-errors value="true"/>
        <no-step-log value="true"/>
    </report>

</configuration>
-->

<routes xmlns:xsi="http://www.w3.org/2001/XMLSchema-instance" xsi:noNamespaceSchemaLocation="http://sumo.dlr.de/xsd/routes_file.xsd">
    <vType id="veh_passenger" vClass="passenger"/>
    <trip id="veh0" type="veh_passenger" depart="0.00" departLane="best" from="30101802#1" to="-120273105"/>
    <trip id="veh1" type="veh_passenger" depart="0.38" departLane="best" departSpeed="max" from="-51747839" to="-42794528#0"/>
    <trip id="veh3" type="veh_passenger" depart="1.15" departLane="best" from="693685351" to="-22604576#0"/>
    <trip id="veh4" type="veh_passenger" depart="1.54" departLane="best" from="120290422#2" to="-120290398#0"/>
    <trip id="veh5" type="veh_passenger" depart="1.92" departLane="best" from="-401846275#1" to="27317044#9"/>
    <trip id="veh6" type="veh_passenger" depart="2.31" departLane="best" from="-124075436#3" to="-37439255#8"/>
    <trip id="veh8" type="veh_passenger" depart="3.08" departLane="best" from="-403900983#2" to="29165110"/>
    <trip id="veh9" type="veh_passenger" depart="3.46" departLane="best" from="49291119#6" to="-109335581#0"/>
    <trip id="veh10" type="veh_passenger" depart="3.85" departLane="best" from="482734422#0" to="38250007#0"/>
    <trip id="veh11" type="veh_passenger" depart="4.23" departLane="best" from="-76507506" to="-30132834"/>
    <trip id="veh12" type="veh_passenger" depart="4.62" departLane="best" from="795795138" to="-847266973#0"/>
    <trip id="veh13" type="veh_passenger" depart="5.00" departLane="best" from="-26197244" to="-250284535#0"/>
    <trip id="veh14" type="veh_passenger" depart="5.39" departLane="best" from="572367924#1" to="304355127"/>
    <trip id="veh15" type="veh_passenger" depart="5.77" departLane="best" from="49290577#1" to="41681012"/>
    <trip id="veh16" type="veh_passenger" depart="6.16" departLane="best" from="26194151" to="845117893"/>
    <trip id="veh17" type="veh_passenger" depart="6.54" departLane="best" from="-956327441#2" to="28881501#0"/>
    <trip id="veh18" type="veh_passenger" depart="6.93" departLane="best" from="51686467#1" to="347163833#3"/>
    <trip id="veh19" type="veh_passenger" depart="7.31" departLane="best" from="585497359#3" to="29064999#3"/>
    <trip id="veh20" type="veh_passenger" depart="7.70" departLane="best" from="370198551" to="-150236535#1"/>
    <trip id="veh21" type="veh_passenger" depart="8.08" departLane="best" from="-42778969#2" to="-68492869"/>
    <trip id="veh22" type="veh_passenger" depart="8.47" departLane="best" departSpeed="max" from="-229716180" to="-42859828#0"/>
    <trip id="veh23" type="veh_passenger" depart="8.85" departLane="best" from="-27997607#0" to="-59577012#1"/>
    <trip id="veh24" type="veh_passenger" depart="9.24" departLane="best" from="29415079#0" to="119302773#1"/>
    <trip id="veh25" type="veh_passenger" depart="9.62" departLane="best" from="-84708104#6" to="-39845092#1"/>
    <trip id="veh26" type="veh_passenger" depart="10.01" departLane="best" from="-51684890#1" to="77417800"/>
    <trip id="veh27" type="veh_passenger" depart="10.39" departLane="best" from="30594416#1" to="321285951#1"/>
    <trip id="veh28" type="veh_passenger" depart="10.78" departLane="best" from="-35396704#0" to="41680025#9"/>
    <trip id="veh29" type="veh_passenger" depart="11.16" departLane="best" from="-353254018#1" to="128206709#4"/>
    <trip id="veh30" type="veh_passenger" depart="11.55" departLane="best" from="938345847#1" to="35396668"/>
    <trip id="veh31" type="veh_passenger" depart="11.93" departLane="best" from="28046462" to="37439255#15"/>
    <trip id="veh32" type="veh_passenger" depart="12.32" departLane="best" from="56004487#3" to="482734426#2"/>
    <trip id="veh33" type="veh_passenger" depart="12.70" departLane="best" from="-427848447#4" to="-120290412#11"/>
    <trip id="veh34" type="veh_passenger" depart="13.09" departLane="best" from="-694049900#6" to="-572367919#4"/>
    <trip id="veh36" type="veh_passenger" depart="13.86" departLane="best" from="631999904#0" to="-77142482#4"/>
    <trip id="veh37" type="veh_passenger" depart="14.24" departLane="best" from="331058967" to="155438226#0"/>
    <trip id="veh38" type="veh_passenger" depart="14.62" departLane="best" from="72180581#0" to="224912628#0"/>
    <trip id="veh39" type="veh_passenger" depart="15.01" departLane="best" from="-51588769#0" to="-507978951#1"/>
    <trip id="veh40" type="veh_passenger" depart="15.39" departLane="best" from="28375067#6" to="-524664958"/>
    <trip id="veh41" type="veh_passenger" depart="15.78" departLane="best" from="286506389#0" to="72180445#1"/>
    <trip id="veh42" type="veh_passenger" depart="16.16" departLane="best" from="118929145" to="-42313952#0"/>
    <trip id="veh43" type="veh_passenger" depart="16.55" departLane="best" from="989349621#1" to="280234182"/>
    <trip id="veh44" type="veh_passenger" depart="16.93" departLane="best" from="-25299571" to="-150256759"/>
    <trip id="veh45" type="veh_passenger" depart="17.32" departLane="best" departSpeed="max" from="-28605305" to="35332900"/>
    <trip id="veh46" type="veh_passenger" depart="17.70" departLane="best" from="42861154#7" to="172192378#0"/>
    <trip id="veh47" type="veh_passenger" depart="18.09" departLane="best" from="-174580224#1" to="128853007#2"/>
    <trip id="veh48" type="veh_passenger" depart="18.47" departLane="best" from="983149027#4" to="28605310"/>
    <trip id="veh49" type="veh_passenger" depart="18.86" departLane="best" departSpeed="max" from="82804927" to="680348064"/>
    <trip id="veh50" type="veh_passenger" depart="19.24" departLane="best" from="-118927911#4" to="40950534#1"/>
    <trip id="veh51" type="veh_passenger" depart="19.63" departLane="best" from="35396394#5" to="28605808"/>
    <trip id="veh52" type="veh_passenger" depart="20.01" departLane="best" departSpeed="max" from="-51684857#1" to="35398845#1"/>
    <trip id="veh53" type="veh_passenger" depart="20.40" departLane="best" from="-28605379#1" to="173553380#1"/>
    <trip id="veh54" type="veh_passenger" depart="20.78" departLane="best" departSpeed="max" from="163355011" to="795636119"/>
    <trip id="veh55" type="veh_passenger" depart="21.17" departLane="best" from="631999902" to="-529701050"/>
    <trip id="veh56" type="veh_passenger" depart="21.55" departLane="best" departSpeed="max" from="208386370" to="-35584346#0"/>
    <trip id="veh57" type="veh_passenger" depart="21.94" departLane="best" from="72180550#2" to="68495664"/>
    <trip id="veh58" type="veh_passenger" depart="22.32" departLane="best" departSpeed="max" from="-656638381#3" to="35396455#2"/>
    <trip id="veh59" type="veh_passenger" depart="22.71" departLane="best" from="28987800" to="-30102955#1"/>
    <trip id="veh60" type="veh_passenger" depart="23.09" departLane="best" from="427804717#0" to="28605951"/>
    <trip id="veh61" type="veh_passenger" depart="23.48" departLane="best" from="42827026#0" to="28605347#2"/>
    <trip id="veh62" type="veh_passenger" depart="23.86" departLane="best" from="-107101618#3" to="-795795138"/>
    <trip id="veh63" type="veh_passenger" depart="24.25" departLane="best" from="-120290387#8" to="77031974#1"/>
    <trip id="veh64" type="veh_passenger" depart="24.63" departLane="best" from="656638381#2" to="579274891#0"/>
    <trip id="veh65" type="veh_passenger" depart="25.02" departLane="best" departSpeed="max" from="-685429648" to="-164796091#0"/>
    <trip id="veh66" type="veh_passenger" depart="25.40" departLane="best" from="64447299" to="791547226"/>
    <trip id="veh68" type="veh_passenger" depart="26.17" departLane="best" from="-195398576#2" to="42860398#3"/>
    <trip id="veh69" type="veh_passenger" depart="26.56" departLane="best" departSpeed="max" from="42793701" to="-28825247"/>
    <trip id="veh70" type="veh_passenger" depart="26.94" departLane="best" from="172192393" to="28881173#1"/>
    <trip id="veh71" type="veh_passenger" depart="27.33" departLane="best" from="-51588769#4" to="686916922"/>
    <trip id="veh72" type="veh_passenger" depart="27.71" departLane="best" from="120290424#2" to="-39845123"/>
    <trip id="veh73" type="veh_passenger" depart="28.10" departLane="best" from="26197859#0" to="41682476#1"/>
    <trip id="veh74" type="veh_passenger" depart="28.48" departLane="best" from="-376562081#2" to="-77006940#0"/>
    <trip id="veh75" type="veh_passenger" depart="28.87" departLane="best" from="961858220#2" to="362068182#3"/>
    <trip id="veh76" type="veh_passenger" depart="29.25" departLane="best" from="145515544#1" to="28375471#0"/>
    <trip id="veh77" type="veh_passenger" depart="29.63" departLane="best" departSpeed="max" from="-28881173#2" to="-42807366#6"/>
    <trip id="veh78" type="veh_passenger" depart="30.02" departLane="best" departSpeed="max" from="-72180591#3" to="29164977#3"/>
    <trip id="veh79" type="veh_passenger" depart="30.40" departLane="best" departSpeed="max" from="-42793706#1" to="-42778969#1"/>
    <trip id="veh80" type="veh_passenger" depart="30.79" departLane="best" from="-206186986" to="353610204#2"/>
    <trip id="veh81" type="veh_passenger" depart="31.17" departLane="best" from="-427848447#3" to="72180534#1"/>
    <trip id="veh82" type="veh_passenger" depart="31.56" departLane="best" from="584899915#5" to="-172085427#1"/>
    <trip id="veh83" type="veh_passenger" depart="31.94" departLane="best" from="-42831972#1" to="371730926#6"/>
    <trip id="veh84" type="veh_passenger" depart="32.33" departLane="best" departSpeed="max" from="-39845098#2" to="-28925436#0"/>
    <trip id="veh85" type="veh_passenger" depart="32.71" departLane="best" from="77093917#0" to="29025116"/>
    <trip id="veh86" type="veh_passenger" depart="33.10" departLane="best" from="172085427#0" to="51412669#1"/>
    <trip id="veh87" type="veh_passenger" depart="33.48" departLane="best" from="49290577#7" to="-371730921#1"/>
    <trip id="veh88" type="veh_passenger" depart="33.87" departLane="best" from="-263959609#0" to="172376671#0"/>
    <trip id="veh89" type="veh_passenger" depart="34.25" departLane="best" from="120290426" to="22753547#2"/>
    <trip id="veh90" type="veh_passenger" depart="34.64" departLane="best" from="37549745" to="371752783#0"/>
    <trip id="veh92" type="veh_passenger" depart="35.41" departLane="best" departSpeed="max" from="119301529" to="-878853562#0"/>
    <trip id="veh93" type="veh_passenger" depart="35.79" departLane="best" from="585497359#3" to="-51528989"/>
    <trip id="veh94" type="veh_passenger" depart="36.18" departLane="best" departSpeed="max" from="-371734168" to="196711642#6"/>
    <trip id="veh95" type="veh_passenger" depart="36.56" departLane="best" from="120290422#2" to="-59577983#3"/>
    <trip id="veh96" type="veh_passenger" depart="36.95" departLane="best" departSpeed="max" from="-47149974#1" to="767868502#0"/>
    <trip id="veh97" type="veh_passenger" depart="37.33" departLane="best" from="157286610#1" to="680352871"/>
    <trip id="veh98" type="veh_passenger" depart="37.72" departLane="best" from="27317044#7" to="-157374986"/>
    <trip id="veh99" type="veh_passenger" depart="38.10" departLane="best" from="996821055#0" to="585488265#12"/>
    <trip id="veh100" type="veh_passenger" depart="38.49" departLane="best" from="8276419#1" to="77006940#1"/>
    <trip id="veh101" type="veh_passenger" depart="38.87" departLane="best" from="572403065#1" to="-350305788#0"/>
    <trip id="veh102" type="veh_passenger" depart="39.26" departLane="best" from="182390761#2" to="-40325350#1"/>
    <trip id="veh103" type="veh_passenger" depart="39.64" departLane="best" departSpeed="max" from="119082420" to="-164799504#1"/>
    <trip id="veh104" type="veh_passenger" depart="40.03" departLane="best" from="-51588772" to="513266209"/>
    <trip id="veh105" type="veh_passenger" depart="40.41" departLane="best" from="164796091#1" to="172192382"/>
    <trip id="veh106" type="veh_passenger" depart="40.80" departLane="best" from="796949842#1" to="978330138"/>
    <trip id="veh107" type="veh_passenger" depart="41.18" departLane="best" from="28033642#7" to="4039037#0"/>
    <trip id="veh108" type="veh_passenger" depart="41.57" departLane="best" from="-331237416#2" to="-72180373#0"/>
    <trip id="veh109" type="veh_passenger" depart="41.95" departLane="best" from="8276412#0" to="29065096#6"/>
    <trip id="veh110" type="veh_passenger" depart="42.34" departLane="best" departSpeed="max" from="26198928" to="428217069"/>
    <trip id="veh111" type="veh_passenger" depart="42.72" departLane="best" from="-172192399" to="29162732#0"/>
    <trip id="veh112" type="veh_passenger" depart="43.11" departLane="best" from="-33968253#6" to="799470696#1"/>
    <trip id="veh113" type="veh_passenger" depart="43.49" departLane="best" from="-23138250#1" to="-370155236#6"/>
    <trip id="veh114" type="veh_passenger" depart="43.87" departLane="best" from="28868063#0" to="371917099"/>
    <trip id="veh115" type="veh_passenger" depart="44.26" departLane="best" from="-42808462#0" to="-28605539"/>
    <trip id="veh116" type="veh_passenger" depart="44.64" departLane="best" from="688461714" to="-506093859"/>
    <trip id="veh117" type="veh_passenger" depart="45.03" departLane="best" departSpeed="max" from="28826292#0" to="35016314#2"/>
    <trip id="veh118" type="veh_passenger" depart="45.41" departLane="best" from="120290412#1" to="29162461#1"/>
    <trip id="veh119" type="veh_passenger" depart="45.80" departLane="best" from="234875259#1" to="77180868#0"/>
    <trip id="veh120" type="veh_passenger" depart="46.18" departLane="best" departSpeed="max" from="-38249518#2" to="40325281#0"/>
    <trip id="veh121" type="veh_passenger" depart="46.57" departLane="best" departSpeed="max" from="-42833740#1" to="156349583"/>
    <trip id="veh122" type="veh_passenger" depart="46.95" departLane="best" from="35332871#0" to="-72180420#4"/>
    <trip id="veh123" type="veh_passenger" depart="47.34" departLane="best" from="-699402591" to="42833230#0"/>
    <trip id="veh124" type="veh_passenger" depart="47.72" departLane="best" departSpeed="max" from="-209397722" to="220136203#1"/>
    <trip id="veh125" type="veh_passenger" depart="48.11" departLane="best" departSpeed="max" from="99449667" to="983149025#1"/>
    <trip id="veh126" type="veh_passenger" depart="48.49" departLane="best" from="-216396027#0" to="-401846289#1"/>
    <trip id="veh127" type="veh_passenger" depart="48.88" departLane="best" from="-51588772" to="77142482#1"/>
    <trip id="veh128" type="veh_passenger" depart="49.26" departLane="best" from="666436854#3" to="694049900#7"/>
    <trip id="veh129" type="veh_passenger" depart="49.65" departLane="best" from="-84707806#1" to="-31011799#1"/>
    <trip id="veh130" type="veh_passenger" depart="50.03" departLane="best" from="51747844" to="39362945#0"/>
    <trip id="veh131" type="veh_passenger" depart="50.42" departLane="best" from="28990316" to="884202006"/>
    <trip id="veh132" type="veh_passenger" depart="50.80" departLane="best" from="32649993#6" to="-112567863"/>
    <trip id="veh133" type="veh_passenger" depart="51.19" departLane="best" from="51528993#0" to="-72180407#3"/>
    <trip id="veh134" type="veh_passenger" depart="51.57" departLane="best" from="35016965#3" to="77993638#1"/>
    <trip id="veh135" type="veh_passenger" depart="51.96" departLane="best" from="-29065044#0" to="-28604817#2"/>
    <trip id="veh136" type="veh_passenger" depart="52.34" departLane="best" departSpeed="max" from="-28604997#1" to="28882949#1"/>
    <trip id="veh137" type="veh_passenger" depart="52.73" departLane="best" from="-51728808#0" to="30594678#1"/>
    <trip id="veh138" type="veh_passenger" depart="53.11" departLane="best" from="37438131#1" to="-38249517#1"/>
    <trip id="veh139" type="veh_passenger" depart="53.50" departLane="best" from="29415020#1" to="-53144683#0"/>
    <trip id="veh140" type="veh_passenger" depart="53.88" departLane="best" from="186205001#1" to="72180531#1"/>
    <trip id="veh141" type="veh_passenger" depart="54.27" departLane="best" from="565734706#1" to="-232549148"/>
    <trip id="veh142" type="veh_passenger" depart="54.65" departLane="best" from="120290426" to="-59148578"/>
    <trip id="veh143" type="veh_passenger" depart="55.04" departLane="best" from="29698036#3" to="-51765254#0"/>
    <trip id="veh144" type="veh_passenger" depart="55.42" departLane="best" departSpeed="max" from="39845092#0" to="28881482#1"/>
    <trip id="veh145" type="veh_passenger" depart="55.81" departLane="best" from="128206710" to="-118911040#3"/>
    <trip id="veh146" type="veh_passenger" depart="56.19" departLane="best" departSpeed="max" from="-224992900#1" to="699609740#2"/>
    <trip id="veh147" type="veh_passenger" depart="56.58" departLane="best" departSpeed="max" from="72180382#0" to="28711658#0"/>
    <trip id="veh148" type="veh_passenger" depart="56.96" departLane="best" departSpeed="max" from="51765254#0" to="29160954#1"/>
    <trip id="veh149" type="veh_passenger" depart="57.35" departLane="best" from="-30132834" to="-28712829#1"/>
    <trip id="veh150" type="veh_passenger" depart="57.73" departLane="best" departSpeed="max" from="-686916609" to="72180450#1"/>
    <trip id="veh151" type="veh_passenger" depart="58.11" departLane="best" from="436199758#0" to="680348063"/>
    <trip id="veh152" type="veh_passenger" depart="58.50" departLane="best" from="708606977" to="-39845096#3"/>
    <trip id="veh153" type="veh_passenger" depart="58.88" departLane="best" from="-47149974#0" to="-26198066#1"/>
    <trip id="veh154" type="veh_passenger" depart="59.27" departLane="best" from="42830011#1" to="699611806#1"/>
    <trip id="veh155" type="veh_passenger" depart="59.65" departLane="best" from="119907645#0" to="35040789#2"/>
    <trip id="veh156" type="veh_passenger" depart="60.04" departLane="best" from="-33113461#2" to="77031996"/>
    <trip id="veh157" type="veh_passenger" depart="60.42" departLane="best" from="59148562#0" to="84703843"/>
    <trip id="veh158" type="veh_passenger" depart="60.81" departLane="best" from="502010936#6" to="696135479"/>
    <trip id="veh159" type="veh_passenger" depart="61.19" departLane="best" from="-120290423#1" to="42793704"/>
    <trip id="veh160" type="veh_passenger" depart="61.58" departLane="best" from="-72180514#1" to="77032838"/>
    <trip id="veh161" type="veh_passenger" depart="61.96" departLane="best" from="464794045" to="681745566"/>
    <trip id="veh162" type="veh_passenger" depart="62.35" departLane="best" from="502010936#6" to="-565685117#2"/>
    <trip id="veh163" type="veh_passenger" depart="62.73" departLane="best" from="42859998#2" to="-27184725#3"/>
    <trip id="veh164" type="veh_passenger" depart="63.12" departLane="best" from="59753095#8" to="670533337#1"/>
    <trip id="veh165" type="veh_passenger" depart="63.50" departLane="best" departSpeed="max" from="-40951020" to="551682752#0"/>
    <trip id="veh166" type="veh_passenger" depart="63.89" departLane="best" departSpeed="max" from="166292447#0" to="-72180572#1"/>
    <trip id="veh167" type="veh_passenger" depart="64.27" departLane="best" from="436198365" to="-42809504#3"/>
    <trip id="veh168" type="veh_passenger" depart="64.66" departLane="best" from="-120290418#0" to="-371752787#1"/>
    <trip id="veh169" type="veh_passenger" depart="65.04" departLane="best" departSpeed="max" from="-72180453" to="681745582"/>
    <trip id="veh170" type="veh_passenger" depart="65.43" departLane="best" from="820538392" to="-59753090"/>
    <trip id="veh171" type="veh_passenger" depart="65.81" departLane="best" from="301264263" to="159146944#1"/>
    <trip id="veh172" type="veh_passenger" depart="66.20" departLane="best" from="85537049" to="28605764#0"/>
    <trip id="veh173" type="veh_passenger" depart="66.58" departLane="best" from="77180885#7" to="-28604817#1"/>
    <trip id="veh174" type="veh_passenger" depart="66.97" departLane="best" from="82796383#0" to="-35584148#1"/>
    <trip id="veh175" type="veh_passenger" depart="67.35" departLane="best" from="799470701" to="-551682733#0"/>
    <trip id="veh176" type="veh_passenger" depart="67.74" departLane="best" from="-28605250#2" to="173553379"/>
    <trip id="veh177" type="veh_passenger" depart="68.12" departLane="best" from="37549739#0" to="-77113412"/>
    <trip id="veh178" type="veh_passenger" depart="68.51" departLane="best" from="28925445#1" to="28046462"/>
    <trip id="veh179" type="veh_passenger" depart="68.89" departLane="best" departSpeed="max" from="109126973#0" to="29064953#0"/>
    <trip id="veh180" type="veh_passenger" depart="69.28" departLane="best" from="-507894547#0" to="39845098#2"/>
    <trip id="veh181" type="veh_passenger" depart="69.66" departLane="best" from="-109126974#1" to="76966678#1"/>
    <trip id="veh182" type="veh_passenger" depart="70.05" departLane="best" from="26197561#2" to="40949638#2"/>
    <trip id="veh183" type="veh_passenger" depart="70.43" departLane="best" from="39845096#3" to="371734166#0"/>
    <trip id="veh184" type="veh_passenger" depart="70.82" departLane="best" from="-82787049#1" to="-170945451#1"/>
    <trip id="veh185" type="veh_passenger" depart="71.20" departLane="best" departSpeed="max" from="35039979#0" to="-842367389"/>
    <trip id="veh186" type="veh_passenger" depart="71.59" departLane="best" from="-692725127" to="59753095#2"/>
    <trip id="veh187" type="veh_passenger" depart="71.97" departLane="best" from="37438874#3" to="-72180429#2"/>
    <trip id="veh188" type="veh_passenger" depart="72.35" departLane="best" departSpeed="max" from="-687367103" to="165405904#1"/>
    <trip id="veh189" type="veh_passenger" depart="72.74" departLane="best" departSpeed="max" from="119301529" to="-72180343#0"/>
    <trip id="veh190" type="veh_passenger" depart="73.12" departLane="best" from="-29023595#0" to="172085416#2"/>
    <trip id="veh191" type="veh_passenger" depart="73.51" departLane="best" departSpeed="max" from="77991859" to="371972807#0"/>
    <trip id="veh192" type="veh_passenger" depart="73.89" departLane="best" from="72180357#2" to="33968245#2"/>
    <trip id="veh193" type="veh_passenger" depart="74.28" departLane="best" from="-678131691" to="28712823#0"/>
    <trip id="veh194" type="veh_passenger" depart="74.66" departLane="best" from="-107101607#9" to="-683474857#1"/>
    <trip id="veh195" type="veh_passenger" depart="75.05" departLane="best" from="128897700#1" to="29156823"/>
    <trip id="veh197" type="veh_passenger" depart="75.82" departLane="best" from="150256770" to="-40325350#1"/>
    <trip id="veh198" type="veh_passenger" depart="76.20" departLane="best" from="172192377#1" to="72180469"/>
    <trip id="veh199" type="veh_passenger" depart="76.59" departLane="best" from="436199680#1" to="-353254006#0"/>
    <trip id="veh200" type="veh_passenger" depart="76.97" departLane="best" from="-234875259#0" to="28374915#1"/>
    <trip id="veh201" type="veh_passenger" depart="77.36" departLane="best" from="29165462#2" to="-84712581"/>
    <trip id="veh202" type="veh_passenger" depart="77.74" departLane="best" from="51578789#0" to="42829695"/>
    <trip id="veh203" type="veh_passenger" depart="78.13" departLane="best" from="35334184" to="-42807366#5"/>
    <trip id="veh204" type="veh_passenger" depart="78.51" departLane="best" departSpeed="max" from="-37549322#2" to="-120273102"/>
    <trip id="veh205" type="veh_passenger" depart="78.90" departLane="best" from="-42896701#2" to="23152770#1"/>
    <trip id="veh206" type="veh_passenger" depart="79.28" departLane="best" from="572426996" to="-172205703#0"/>
    <trip id="veh207" type="veh_passenger" depart="79.67" departLane="best" from="120290387#9" to="35359313#0"/>
    <trip id="veh208" type="veh_passenger" depart="80.05" departLane="best" from="-371972807#0" to="38249517#1"/>
    <trip id="veh209" type="veh_passenger" depart="80.44" departLane="best" from="196711642#4" to="-49290577#4"/>
    <trip id="veh210" type="veh_passenger" depart="80.82" departLane="best" departSpeed="max" from="331237416#0" to="-109334395#1"/>
    <trip id="veh211" type="veh_passenger" depart="81.21" departLane="best" from="40949703#0" to="45507872#1"/>
    <trip id="veh212" type="veh_passenger" depart="81.59" departLane="best" from="-28594465" to="172192403#1"/>
    <trip id="veh213" type="veh_passenger" depart="81.98" departLane="best" from="-36000821#0" to="797519598#5"/>
    <trip id="veh214" type="veh_passenger" depart="82.36" departLane="best" departSpeed="max" from="23139725#0" to="-157374432#0"/>
    <trip id="veh215" type="veh_passenger" depart="82.75" departLane="best" from="-47028967#3" to="59753095#7"/>
    <trip id="veh216" type="veh_passenger" depart="83.13" departLane="best" from="164817592#1" to="51685427"/>
    <trip id="veh218" type="veh_passenger" depart="83.90" departLane="best" from="28881173#0" to="794480822#0"/>
    <trip id="veh219" type="veh_passenger" depart="84.29" departLane="best" from="692545408#2" to="32880529#1"/>
    <trip id="veh220" type="veh_passenger" depart="84.67" departLane="best" from="37438718" to="27317044#13"/>
    <trip id="veh221" type="veh_passenger" depart="85.06" departLane="best" from="51728729#1" to="28712216#2"/>
    <trip id="veh222" type="veh_passenger" depart="85.44" departLane="best" from="699609744#3" to="42808299#1"/>
    <trip id="veh223" type="veh_passenger" depart="85.83" departLane="best" from="172192389" to="-51728808#0"/>
    <trip id="veh224" type="veh_passenger" depart="86.21" departLane="best" departSpeed="max" from="-45508349" to="35396394#0"/>
    <trip id="veh225" type="veh_passenger" depart="86.60" departLane="best" departSpeed="max" from="42793701" to="28594404"/>
    <trip id="veh226" type="veh_passenger" depart="86.98" departLane="best" from="29160954#1" to="-59148565#1"/>
    <trip id="veh227" type="veh_passenger" depart="87.36" departLane="best" from="-22604461#4" to="-67249974"/>
    <trip id="veh228" type="veh_passenger" depart="87.75" departLane="best" from="-51728592#0" to="-784011539#3"/>
    <trip id="veh229" type="veh_passenger" depart="88.13" departLane="best" from="26197952#2" to="-29025348#1"/>
    <trip id="veh230" type="veh_passenger" depart="88.52" departLane="best" departSpeed="max" from="-42794465#1" to="38217533#1"/>
    <trip id="veh231" type="veh_passenger" depart="88.90" departLane="best" from="370198559" to="-166508975#0"/>
    <trip id="veh232" type="veh_passenger" depart="89.29" departLane="best" departSpeed="max" from="119907649" to="286506391#2"/>
    <trip id="veh233" type="veh_passenger" depart="89.67" departLane="best" departSpeed="max" from="120290393" to="-39179643#2"/>
    <trip id="veh234" type="veh_passenger" depart="90.06" departLane="best" departSpeed="max" from="120290416" to="72180524"/>
    <trip id="veh235" type="veh_passenger" depart="90.44" departLane="best" from="286478283#0" to="38227851#0"/>
    <trip id="veh236" type="veh_passenger" depart="90.83" departLane="best" from="580878334#0" to="42928577#1"/>
    <trip id="veh237" type="veh_passenger" depart="91.21" departLane="best" from="10242157" to="-109334406#1"/>
    <trip id="veh238" type="veh_passenger" depart="91.60" departLane="best" from="-783023016#0" to="42834408#5"/>
    <trip id="veh239" type="veh_passenger" depart="91.98" departLane="best" from="572427016#0" to="795636115#5"/>
    <trip id="veh240" type="veh_passenger" depart="92.37" departLane="best" from="120290410#0" to="42818788#0"/>
    <trip id="veh241" type="veh_passenger" depart="92.75" departLane="best" from="263959608#1" to="30251641"/>
    <trip id="veh242" type="veh_passenger" depart="93.14" departLane="best" from="-403900983#3" to="-42313952#1"/>
    <trip id="veh243" type="veh_passenger" depart="93.52" departLane="best" from="141598087" to="-120290395#1"/>
    <trip id="veh244" type="veh_passenger" depart="93.91" departLane="best" departSpeed="max" from="-72180576" to="37438062#5"/>
    <trip id="veh245" type="veh_passenger" depart="94.29" departLane="best" departSpeed="max" from="119556755#0" to="-35016313#0"/>
    <trip id="veh246" type="veh_passenger" depart="94.68" departLane="best" from="168559515#0" to="-28724287#0"/>
    <trip id="veh247" type="veh_passenger" depart="95.06" departLane="best" from="29065005" to="-120290387#7"/>
    <trip id="veh248" type="veh_passenger" depart="95.45" departLane="best" from="117358717#0" to="28987781#2"/>
    <trip id="veh249" type="veh_passenger" depart="95.83" departLane="best" departSpeed="max" from="-128849230" to="354382867"/>
    <trip id="veh250" type="veh_passenger" depart="96.22" departLane="best" departSpeed="max" from="-29158422" to="22567362#1"/>
    <trip id="veh251" type="veh_passenger" depart="96.60" departLane="best" departSpeed="max" from="-168647685" to="128206709#2"/>
    <trip id="veh252" type="veh_passenger" depart="96.99" departLane="best" departSpeed="max" from="-39762552" to="-819897879"/>
    <trip id="veh253" type="veh_passenger" depart="97.37" departLane="best" from="427796807#0" to="128206709#2"/>
    <trip id="veh254" type="veh_passenger" depart="97.76" departLane="best" from="40950012#1" to="580878331#1"/>
    <trip id="veh255" type="veh_passenger" depart="98.14" departLane="best" from="-49290577#7" to="-208387798#1"/>