<?xml version="1.0" encoding="UTF-8"?>

<!-- generated on 2021-10-27 12:11:59 by Eclipse SUMO duarouter Version 1.10.0
<configuration xmlns:xsi="http://www.w3.org/2001/XMLSchema-instance" xsi:noNamespaceSchemaLocation="http://sumo.dlr.de/xsd/duarouterConfiguration.xsd">

    <input>
        <net-file value="/Users/nicolas/2021-10-27-12-03-56/osm.net.xml"/>
        <route-files value="/Users/nicolas/2021-10-27-12-03-56/osm.bus.trips.xml"/>
    </input>

    <output>
        <output-file value="/Users/nicolas/2021-10-27-12-03-56/osm.bus.trips.xml.tmp"/>
        <write-trips value="true"/>
    </output>

    <time>
        <begin value="0"/>
        <end value="3600"/>
    </time>

    <report>
        <no-warnings value="true"/>
        <ignore-errors value="true"/>
        <no-step-log value="true"/>
    </report>

</configuration>
-->

<routes xmlns:xsi="http://www.w3.org/2001/XMLSchema-instance" xsi:noNamespaceSchemaLocation="http://sumo.dlr.de/xsd/routes_file.xsd">
    <vType id="bus_bus" vClass="bus"/>
    <trip id="bus0" type="bus_bus" depart="0.00" departLane="best" from="29160405" to="-120273099"/>
    <trip id="bus1" type="bus_bus" depart="1.15" departLane="best" departSpeed="max" from="-51529043#1" to="-39845123"/>
    <trip id="bus2" type="bus_bus" depart="2.31" departLane="best" from="374808757#1" to="371730923#0"/>
    <trip id="bus3" type="bus_bus" depart="3.46" departLane="best" from="667058945" to="-207347620"/>
    <trip id="bus4" type="bus_bus" depart="4.62" departLane="best" from="118927930#0" to="-120290390#1"/>
    <trip id="bus5" type="bus_bus" depart="5.77" departLane="best" from="-38358553#1" to="26194253#4"/>
    <trip id="bus6" type="bus_bus" depart="6.92" departLane="best" from="-120290422#8" to="-370195017#2"/>
    <trip id="bus7" type="bus_bus" depart="8.08" departLane="best" from="29415067#5" to="28605512#1"/>
    <trip id="bus8" type="bus_bus" depart="9.23" departLane="best" departSpeed="max" from="-39179090" to="29065044#1"/>
    <trip id="bus9" type="bus_bus" depart="10.39" departLane="best" from="45267094#1" to="-109335573"/>
    <trip id="bus10" type="bus_bus" depart="11.54" departLane="best" from="433825631#1" to="37549322#0"/>
    <trip id="bus11" type="bus_bus" depart="12.69" departLane="best" from="-72180351#1" to="-29415020#3"/>
    <trip id="bus12" type="bus_bus" depart="13.85" departLane="best" from="791547231#7" to="-782431023"/>
    <trip id="bus13" type="bus_bus" depart="15.00" departLane="best" departSpeed="max" from="51765254#0" to="29415020#8"/>
    <trip id="bus14" type="bus_bus" depart="16.16" departLane="best" from="436199758#2" to="40950534#1"/>
    <trip id="bus15" type="bus_bus" depart="17.31" departLane="best" from="23139739" to="82787054#0"/>
    <trip id="bus16" type="bus_bus" depart="18.46" departLane="best" departSpeed="max" from="-794194394#3" to="286478265#1"/>
    <trip id="bus17" type="bus_bus" depart="19.62" departLane="best" from="51578784#3" to="31011799#2"/>
    <trip id="bus18" type="bus_bus" depart="20.77" departLane="best" from="572427001" to="28990316"/>
    <trip id="bus19" type="bus_bus" depart="21.93" departLane="best" from="362068182#11" to="-132462254"/>
    <trip id="bus20" type="bus_bus" depart="23.08" departLane="best" departSpeed="max" from="-39845109" to="-59148554#0"/>
    <trip id="bus21" type="bus_bus" depart="24.23" departLane="best" from="-224992899#4" to="-427848446#0"/>
    <trip id="bus22" type="bus_bus" depart="25.39" departLane="best" from="-263959609#0" to="-524664958"/>
    <trip id="bus23" type="bus_bus" depart="26.54" departLane="best" from="29064999#8" to="103289154#0"/>
    <trip id="bus24" type="bus_bus" depart="27.70" departLane="best" departSpeed="max" from="-77180868#1" to="-37439334#0"/>
    <trip id="bus25" type="bus_bus" depart="28.85" departLane="best" from="-49290583" to="77031980#2"/>
    <trip id="bus26" type="bus_bus" depart="30.00" departLane="best" from="29414778#1" to="30102955#2"/>
    <trip id="bus27" type="bus_bus" depart="31.16" departLane="best" from="-353254009#2" to="40950012#0"/>
    <trip id="bus28" type="bus_bus" depart="32.31" departLane="best" from="-33637995" to="118911040#2"/>
    <trip id="bus29" type="bus_bus" depart="33.47" departLane="best" from="26198066#5" to="371924815#3"/>
    <trip id="bus30" type="bus_bus" depart="34.62" departLane="best" from="51728497" to="436198367"/>
    <trip id="bus31" type="bus_bus" depart="35.78" departLane="best" from="-39845122#0" to="-120290398#0"/>
    <trip id="bus32" type="bus_bus" depart="36.93" departLane="best" departSpeed="max" from="-64311826" to="-51578838#0"/>
    <trip id="bus33" type="bus_bus" depart="38.08" departLane="best" from="-37549739#4" to="77180885#6"/>
    <trip id="bus34" type="bus_bus" depart="39.24" departLane="best" from="59148570#3" to="-72180382#0"/>
    <trip id="bus35" type="bus_bus" depart="40.39" departLane="best" from="30102955#3" to="120290418#0"/>
    <trip id="bus36" type="bus_bus" depart="41.55" departLane="best" from="72180382#1" to="182390764#1"/>
    <trip id="bus37" type="bus_bus" depart="42.70" departLane="best" from="-482734426#2" to="-42860156#0"/>
    <trip id="bus38" type="bus_bus" depart="43.85" departLane="best" from="263959610#1" to="-51528986"/>
    <trip id="bus39" type="bus_bus" depart="45.01" departLane="best" from="28605149" to="72180346"/>
    <trip id="bus41" type="bus_bus" depart="47.32" departLane="best" from="986681108" to="26199421#4"/>
    <trip id="bus42" type="bus_bus" depart="48.47" departLane="best" from="-237091202#1" to="-132464241#5"/>
    <trip id="bus43" type="bus_bus" depart="49.62" departLane="best" from="-28380719#2" to="33968247#6"/>
    <trip id="bus44" type="bus_bus" depart="50.78" departLane="best" from="42833230#4" to="161985010#0"/>
    <trip id="bus45" type="bus_bus" depart="51.93" departLane="best" from="-172225637#1" to="118927919#2"/>
    <trip id="bus46" type="bus_bus" depart="53.09" departLane="best" from="957165606" to="28375317"/>
    <trip id="bus47" type="bus_bus" depart="54.24" departLane="best" from="820001674" to="608032199"/>
    <trip id="bus48" type="bus_bus" depart="55.39" departLane="best" from="-118911278#1" to="39845110"/>
    <trip id="bus49" type="bus_bus" depart="56.55" departLane="best" from="353249791#4" to="28605187#0"/>
    <trip id="bus50" type="bus_bus" depart="57.70" departLane="best" from="-49290580" to="35336533#6"/>
    <trip id="bus51" type="bus_bus" depart="58.86" departLane="best" from="-28604997#0" to="168559515#0"/>
    <trip id="bus52" type="bus_bus" depart="60.01" departLane="best" from="128853007#3" to="791547231#1"/>
    <trip id="bus53" type="bus_bus" depart="61.16" departLane="best" from="59148565#4" to="-51528990#1"/>
    <trip id="bus54" type="bus_bus" depart="62.32" departLane="best" from="172205685#1" to="-353249791#5"/>
    <trip id="bus55" type="bus_bus" depart="63.47" departLane="best" from="72180351#1" to="680787340#0"/>
    <trip id="bus56" type="bus_bus" depart="64.63" departLane="best" from="-572402586" to="35332871#0"/>
    <trip id="bus57" type="bus_bus" depart="65.78" departLane="best" from="28868063#0" to="-29163273#1"/>
    <trip id="bus58" type="bus_bus" depart="66.93" departLane="best" from="40949703#3" to="28605288#2"/>
    <trip id="bus59" type="bus_bus" depart="68.09" departLane="best" from="42794436#3" to="28375494#1"/>
    <trip id="bus60" type="bus_bus" depart="69.24" departLane="best" from="-107101618#1" to="-72180583#0"/>
    <trip id="bus61" type="bus_bus" depart="70.40" departLane="best" from="-120277261#0" to="76507561#1"/>
    <trip id="bus62" type="bus_bus" depart="71.55" departLane="best" from="592710878#1" to="565734706#0"/>
    <trip id="bus63" type="bus_bus" depart="72.70" departLane="best" from="-59148577#2" to="-161637832#0"/>
    <trip id="bus64" type="bus_bus" depart="73.86" departLane="best" from="59148577#2" to="782431025#1"/>
    <trip id="bus65" type="bus_bus" depart="75.01" departLane="best" from="-23139964#3" to="23138251#5"/>
    <trip id="bus66" type="bus_bus" depart="76.17" departLane="best" departSpeed="max" from="-174777865" to="42830011#0"/>
    <trip id="bus67" type="bus_bus" depart="77.32" departLane="best" from="41113167#0" to="-28605951"/>
    <trip id="bus68" type="bus_bus" depart="78.47" departLane="best" from="162108049#4" to="28605835#2"/>
    <trip id="bus69" type="bus_bus" depart="79.63" departLane="best" from="-482734427#1" to="681745582"/>
    <trip id="bus70" type="bus_bus" depart="80.78" departLane="best" departSpeed="max" from="119066138" to="-37549739#6"/>
    <trip id="bus71" type="bus_bus" depart="81.94" departLane="best" departSpeed="max" from="-371747791" to="-700888869"/>
    <trip id="bus72" type="bus_bus" depart="83.09" departLane="best" from="956661477#1" to="35396408#1"/>
    <trip id="bus73" type="bus_bus" depart="84.24" departLane="best" from="120290387#5" to="27676361#1"/>
    <trip id="bus74" type="bus_bus" depart="85.40" departLane="best" from="-286478277#1" to="-401846289#0"/>
    <trip id="bus75" type="bus_bus" depart="86.55" departLane="best" departSpeed="max" from="-71339769" to="29064999#3"/>
    <trip id="bus76" type="bus_bus" depart="87.71" departLane="best" from="-401846271#8" to="-39845088"/>
    <trip id="bus77" type="bus_bus" depart="88.86" departLane="best" departSpeed="max" from="-182392550#1" to="35016964"/>
    <trip id="bus78" type="bus_bus" depart="90.01" departLane="best" from="-39845118" to="72180429#2"/>
    <trip id="bus79" type="bus_bus" depart="91.17" departLane="best" from="572367926#1" to="-166510375"/>
    <trip id="bus80" type="bus_bus" depart="92.32" departLane="best" from="-41113212#1" to="370185644"/>
    <trip id="bus81" type="bus_bus" depart="93.48" departLane="best" from="-38249517#1" to="-28712016#0"/>
    <trip id="bus82" type="bus_bus" depart="94.63" departLane="best" from="76507514#0" to="28916120#0"/>
    <trip id="bus83" type="bus_bus" depart="95.78" departLane="best" from="161637832#1" to="47191667"/>
    <trip id="bus84" type="bus_bus" depart="96.94" departLane="best" from="43715785#0" to="-362068182#11"/>
    <trip id="bus85" type="bus_bus" depart="98.09" departLane="best" from="-26194253#2" to="166286120#1"/>
    <trip id="bus86" type="bus_bus" depart="99.25" departLane="best" from="119066142#1" to="196711646#1"/>
    <trip id="bus87" type="bus_bus" depart="100.40" departLane="best" from="37438138" to="370198555#3"/>
    <trip id="bus88" type="bus_bus" depart="101.56" departLane="best" from="854906535" to="-234820453"/>
    <trip id="bus89" type="bus_bus" depart="102.71" departLane="best" from="-986681108" to="-79122834#12"/>
    <trip id="bus90" type="bus_bus" depart="103.86" departLane="best" from="572426999" to="-42861182#1"/>
    <trip id="bus91" type="bus_bus" depart="105.02" departLane="best" departSpeed="max" from="-370185642" to="172225643#3"/>
    <trip id="bus92" type="bus_bus" depart="106.17" departLane="best" from="118927930#0" to="-528835938#1"/>
    <trip id="bus93" type="bus_bus" depart="107.33" departLane="best" from="-42818750#1" to="73315241#6"/>
    <trip id="bus94" type="bus_bus" depart="108.48" departLane="best" departSpeed="max" from="120290406" to="627112552#1"/>
    <trip id="bus96" type="bus_bus" depart="110.79" departLane="best" from="99449678#1" to="572427006#4"/>
    <trip id="bus97" type="bus_bus" depart="111.94" departLane="best" from="521384729" to="-319609152#0"/>
    <trip id="bus98" type="bus_bus" depart="113.10" departLane="best" departSpeed="max" from="166292447#0" to="-38227564"/>
    <trip id="bus99" type="bus_bus" depart="114.25" departLane="best" from="-944220918#0" to="-161637834"/>
    <trip id="bus100" type="bus_bus" depart="115.40" departLane="best" from="-794194395#0" to="85536883"/>
    <trip id="bus101" type="bus_bus" depart="116.56" departLane="best" from="-482734427#3" to="47149974#0"/>
    <trip id="bus102" type="bus_bus" depart="117.71" departLane="best" from="791547232#1" to="956662122"/>
    <trip id="bus103" type="bus_bus" depart="118.87" departLane="best" from="26197859#0" to="39845099"/>
    <trip id="bus104" type="bus_bus" depart="120.02" departLane="best" from="-30132420" to="-60006634#1"/>
    <trip id="bus105" type="bus_bus" depart="121.17" departLane="best" from="806197197#2" to="29023723#3"/>
    <trip id="bus106" type="bus_bus" depart="122.33" departLane="best" from="23911681#3" to="42794465#1"/>
    <trip id="bus107" type="bus_bus" depart="123.48" departLane="best" departSpeed="max" from="-168845846#1" to="29025783#2"/>
    <trip id="bus108" type="bus_bus" depart="124.64" departLane="best" from="172225637#1" to="592710877"/>
    <trip id="bus109" type="bus_bus" depart="125.79" departLane="best" departSpeed="max" from="-304356826" to="795795136#0"/>
    <trip id="bus110" type="bus_bus" depart="126.94" departLane="best" departSpeed="max" from="-224992900#1" to="-35396455#0"/>
    <trip id="bus111" type="bus_bus" depart="128.10" departLane="best" from="28605764#1" to="371402780"/>
    <trip id="bus112" type="bus_bus" depart="129.25" departLane="best" departSpeed="max" from="-40953399" to="-28594417#0"/>
    <trip id="bus113" type="bus_bus" depart="130.41" departLane="best" from="663811749#3" to="-42859963#3"/>
    <trip id="bus114" type="bus_bus" depart="131.56" departLane="best" departSpeed="max" from="118916078" to="29025626"/>
    <trip id="bus115" type="bus_bus" depart="132.71" departLane="best" from="217931111#1" to="77006947#3"/>
    <trip id="bus116" type="bus_bus" depart="133.87" departLane="best" from="-371972807#0" to="39845090#2"/>
    <trip id="bus117" type="bus_bus" depart="135.02" departLane="best" from="-41124958#0" to="120290419"/>
    <trip id="bus118" type="bus_bus" depart="136.18" departLane="best" departSpeed="max" from="33968245#0" to="-640648225"/>
    <trip id="bus119" type="bus_bus" depart="137.33" departLane="best" departSpeed="max" from="-656638381#3" to="42807634"/>
    <trip id="bus120" type="bus_bus" depart="138.48" departLane="best" from="-186205001#1" to="182184467"/>
    <trip id="bus121" type="bus_bus" depart="139.64" departLane="best" from="989349622" to="957165606"/>
    <trip id="bus122" type="bus_bus" depart="140.79" departLane="best" from="-186205007#0" to="-380281281#0"/>
    <trip id="bus123" type="bus_bus" depart="141.95" departLane="best" from="-482734427#3" to="77006926#1"/>
    <trip id="bus124" type="bus_bus" depart="143.10" departLane="best" from="59577979#1" to="685704560"/>
    <trip id="bus125" type="bus_bus" depart="144.25" departLane="best" departSpeed="max" from="-77180866" to="-29698036#2"/>
    <trip id="bus126" type="bus_bus" depart="145.41" departLane="best" from="51578818#3" to="38227566"/>
    <trip id="bus127" type="bus_bus" depart="146.56" departLane="best" from="28881535#1" to="85537047#1"/>
    <trip id="bus128" type="bus_bus" depart="147.72" departLane="best" from="30101802#0" to="-112053595"/>
    <trip id="bus129" type="bus_bus" depart="148.87" departLane="best" from="482734422#3" to="-640647994"/>
    <trip id="bus130" type="bus_bus" depart="150.02" departLane="best" from="30950997#1" to="77113409#1"/>
    <trip id="bus131" type="bus_bus" depart="151.18" departLane="best" from="-29024963#1" to="-27997607#2"/>
    <trip id="bus132" type="bus_bus" depart="152.33" departLane="best" from="-28374915#0" to="286506387#1"/>
    <trip id="bus133" type="bus_bus" depart="153.49" departLane="best" from="-51528981#1" to="29415098"/>
    <trip id="bus134" type="bus_bus" depart="154.64" departLane="best" from="370198559" to="-371924814#0"/>
    <trip id="bus135" type="bus_bus" depart="155.79" departLane="best" from="29064853#1" to="-51529042#1"/>
    <trip id="bus136" type="bus_bus" depart="156.95" departLane="best" departSpeed="max" from="166510375" to="72180429#1"/>
    <trip id="bus137" type="bus_bus" depart="158.10" departLane="best" departSpeed="max" from="51747843" to="-22604576#0"/>
    <trip id="bus138" type="bus_bus" depart="159.26" departLane="best" from="119066142#1" to="-51760753"/>
    <trip id="bus139" type="bus_bus" depart="160.41" departLane="best" departSpeed="max" from="-109329404" to="42860813#6"/>
    <trip id="bus140" type="bus_bus" depart="161.57" departLane="best" departSpeed="max" from="29065100" to="-51528981#0"/>
    <trip id="bus141" type="bus_bus" depart="162.72" departLane="best" departSpeed="max" from="377044079" to="28607136#0"/>
    <trip id="bus142" type="bus_bus" depart="163.87" departLane="best" departSpeed="max" from="119556755#0" to="-117358715"/>
    <trip id="bus143" type="bus_bus" depart="165.03" departLane="best" from="-206186863#1" to="690678684"/>
    <trip id="bus144" type="bus_bus" depart="166.18" departLane="best" from="695937989" to="28605560"/>
    <trip id="bus145" type="bus_bus" depart="167.34" departLane="best" from="51578830" to="29025345"/>
    <trip id="bus146" type="bus_bus" depart="168.49" departLane="best" from="-29414976#1" to="-28605835#1"/>
    <trip id="bus147" type="bus_bus" depart="169.64" departLane="best" from="-595616748#1" to="72180357#0"/>
    <trip id="bus148" type="bus_bus" depart="170.80" departLane="best" from="42859108#4" to="60777177"/>
    <trip id="bus149" type="bus_bus" depart="171.95" departLane="best" from="684835340#1" to="-37549322#0"/>
    <trip id="bus150" type="bus_bus" depart="173.11" departLane="best" from="-42809602#1" to="-250284535#2"/>
    <trip id="bus151" type="bus_bus" depart="174.26" departLane="best" from="42800102" to="692232409#2"/>
    <trip id="bus152" type="bus_bus" depart="175.41" departLane="best" from="107101620" to="321285950#2"/>
    <trip id="bus153" type="bus_bus" depart="176.57" departLane="best" from="-30132390#1" to="76512153#1"/>
    <trip id="bus154" type="bus_bus" depart="177.72" departLane="best" from="572427018" to="845117893"/>
    <trip id="bus155" type="bus_bus" depart="178.88" departLane="best" departSpeed="max" from="45983713#0" to="690363230"/>
    <trip id="bus156" type="bus_bus" depart="180.03" departLane="best" from="-120290412#2" to="41124946#6"/>
    <trip id="bus157" type="bus_bus" depart="181.18" departLane="best" from="-692240222" to="769123274#3"/>
    <trip id="bus158" type="bus_bus" depart="182.34" departLane="best" from="42861154#10" to="656638381#2"/>
    <trip id="bus159" type="bus_bus" depart="183.49" departLane="best" departSpeed="max" from="45983713#0" to="-51578806#0"/>
    <trip id="bus160" type="bus_bus" depart="184.65" departLane="best" from="42818788#0" to="-26197891#0"/>
    <trip id="bus161" type="bus_bus" depart="185.80" departLane="best" from="585490415#1" to="60006636#0"/>
    <trip id="bus163" type="bus_bus" depart="188.11" departLane="best" from="141598083#8" to="-68485326#0"/>
    <trip id="bus164" type="bus_bus" depart="189.26" departLane="best" departSpeed="max" from="42856967#0" to="-40949961#0"/>
    <trip id="bus165" type="bus_bus" depart="190.42" departLane="best" from="-120290405#10" to="-368754056"/>
    <trip id="bus167" type="bus_bus" depart="192.72" departLane="best" from="799470692#5" to="-53144683#0"/>
    <trip id="bus168" type="bus_bus" depart="193.88" departLane="best" from="29162461#2" to="124075436#4"/>
    <trip id="bus169" type="bus_bus" depart="195.03" departLane="best" from="84709273#2" to="28605162"/>
    <trip id="bus170" type="bus_bus" depart="196.19" departLane="best" from="77006926#0" to="-27997607#0"/>
    <trip id="bus171" type="bus_bus" depart="197.34" departLane="best" departSpeed="max" from="816770887" to="-353249791#4"/>
    <trip id="bus172" type="bus_bus" depart="198.49" departLane="best" from="795789061#3" to="-51578791#1"/>
    <trip id="bus173" type="bus_bus" depart="199.65" departLane="best" from="-28375262" to="168512734"/>
    <trip id="bus174" type="bus_bus" depart="200.80" departLane="best" from="37438098#2" to="-72180350#1"/>
    <trip id="bus175" type="bus_bus" depart="201.96" departLane="best" departSpeed="max" from="28724287#0" to="26202554#6"/>
    <trip id="bus176" type="bus_bus" depart="203.11" departLane="best" departSpeed="max" from="-82787038" to="28989483"/>
    <trip id="bus177" type="bus_bus" depart="204.26" departLane="best" from="-42859963#0" to="38358380"/>
    <trip id="bus178" type="bus_bus" depart="205.42" departLane="best" from="-109126973#4" to="760955337"/>
    <trip id="bus179" type="bus_bus" depart="206.57" departLane="best" from="232549124" to="39845106"/>
    <trip id="bus181" type="bus_bus" depart="208.88" departLane="best" departSpeed="max" from="-76966678#1" to="-166508977"/>
    <trip id="bus182" type="bus_bus" depart="210.03" departLane="best" from="31011799#1" to="-77006932#0"/>
    <trip id="bus183" type="bus_bus" depart="211.19" departLane="best" from="-609938309" to="59148557"/>
    <trip id="bus184" type="bus_bus" depart="212.34" departLane="best" from="371730920#3" to="-656638381#2"/>
    <trip id="bus186" type="bus_bus" depart="214.65" departLane="best" from="-978330138" to="-59753093#1"/>
    <trip id="bus187" type="bus_bus" depart="215.80" departLane="best" from="-28881517#2" to="159154538"/>
    <trip id="bus188" type="bus_bus" depart="216.96" departLane="best" from="77006947#3" to="371730926#3"/>
    <trip id="bus189" type="bus_bus" depart="218.11" departLane="best" from="693685351" to="30251641"/>
    <trip id="bus190" type="bus_bus" depart="219.27" departLane="best" from="-580878367" to="28605763#1"/>
    <trip id="bus191" type="bus_bus" depart="220.42" departLane="best" from="-107101607#4" to="-580878385#0"/>
    <trip id="bus192" type="bus_bus" depart="221.57" departLane="best" from="119907645#1" to="29024936"/>
    <trip id="bus193" type="bus_bus" depart="222.73" departLane="best" from="30101868#3" to="196701475#3"/>
    <trip id="bus194" type="bus_bus" depart="223.88" departLane="best" from="120290402#3" to="-38227564"/>
    <trip id="bus195" type="bus_bus" depart="225.04" departLane="best" departSpeed="max" from="161637834" to="72180384"/>
    <trip id="bus196" type="bus_bus" depart="226.19" departLane="best" from="42859108#2" to="-331237416#6"/>
    <trip id="bus197" type="bus_bus" depart="227.35" departLane="best" from="-23138252#2" to="270313626#2"/>
    <trip id="bus198" type="bus_bus" depart="228.50" departLane="best" from="29049835" to="-77991859"/>
    <trip id="bus199" type="bus_bus" depart="229.65" departLane="best" from="49290577#3" to="42807366#3"/>
    <trip id="bus200" type="bus_bus" depart="230.81" departLane="best" from="33968247#11" to="-401846289#0"/>
    <trip id="bus201" type="bus_bus" depart="231.96" departLane="best" departSpeed="max" from="-371734167" to="-120273098#0"/>
    <trip id="bus202" type="bus_bus" depart="233.12" departLane="best" from="-42794528#1" to="224912628#0"/>
    <trip id="bus203" type="bus_bus" depart="234.27" departLane="best" departSpeed="max" from="529701050" to="-168845837"/>
    <trip id="bus204" type="bus_bus" depart="235.42" departLane="best" from="-370198553#0" to="374808749#1"/>
    <trip id="bus205" type="bus_bus" depart="236.58" departLane="best" from="168845844" to="-42834724#4"/>
    <trip id="bus206" type="bus_bus" depart="237.73" departLane="best" from="30103232#1" to="-109334390#3"/>
    <trip id="bus208" type="bus_bus" depart="240.04" departLane="best" from="-28368288#6" to="163276821#2"/>
    <trip id="bus209" type="bus_bus" depart="241.19" departLane="best" departSpeed="max" from="-353610288" to="794808872#2"/>
    <trip id="bus210" type="bus_bus" depart="242.35" departLane="best" from="196723256#3" to="-150256754"/>
    <trip id="bus211" type="bus_bus" depart="243.50" departLane="best" from="-42809504#5" to="59148559#0"/>
    <trip id="bus212" type="bus_bus" depart="244.66" departLane="best" departSpeed="max" from="132462251" to="51578788"/>
    <trip id="bus213" type="bus_bus" depart="245.81" departLane="best" from="32649993#1" to="863848437"/>
    <trip id="bus214" type="bus_bus" depart="246.96" departLane="best" from="28605809" to="784011536#1"/>
    <trip id="bus215" type="bus_bus" depart="248.12" departLane="best" from="666436854#0" to="30132463"/>
    <trip id="bus216" type="bus_bus" depart="249.27" departLane="best" from="371730919#0" to="25862642#0"/>
    <trip id="bus217" type="bus_bus" depart="250.43" departLane="best" from="51578791#1" to="28605763#0"/>
    <trip id="bus218" type="bus_bus" depart="251.58" departLane="best" from="683474857#3" to="427835910#0"/>
    <trip id="bus219" type="bus_bus" depart="252.73" departLane="best" from="162030273" to="-502010936#1"/>
    <trip id="bus220" type="bus_bus" depart="253.89" departLane="best" from="-42807792#1" to="353259119#0"/>
    <trip id="bus221" type="bus_bus" depart="255.04" departLane="best" from="41113167#0" to="27997972#1"/>
    <trip id="bus222" type="bus_bus" depart="256.20" departLane="best" departSpeed="max" from="29024921" to="-51729067#1"/>
    <trip id="bus223" type="bus_bus" depart="257.35" departLane="best" departSpeed="max" from="-209397722" to="-579312486"/>
    <trip id="bus224" type="bus_bus" depart="258.50" departLane="best" departSpeed="max" from="-515207169" to="-72180475#0"/>
    <trip id="bus225" type="bus_bus" depart="259.66" departLane="best" from="234875259#1" to="-28916105#0"/>
    <trip id="bus226" type="bus_bus" depart="260.81" departLane="best" from="-40325350#2" to="37439255#13"/>
    <trip id="bus227" type="bus_bus" depart="261.97" departLane="best" from="368604094#0" to="-164817592#1"/>
    <trip id="bus228" type="bus_bus" depart="263.12" departLane="best" departSpeed="max" from="109126973#0" to="28605373#1"/>
    <trip id="bus229" type="bus_bus" depart="264.27" departLane="best" from="117347807#0" to="-37438131#2"/>
    <trip id="bus230" type="bus_bus" depart="265.43" departLane="best" from="118927911#4" to="72180420#4"/>
    <trip id="bus231" type="bus_bus" depart="266.58" departLane="best" from="28605093#4" to="374808745#5"/>
    <trip id="bus232" type="bus_bus" depart="267.74" departLane="best" from="565685117#2" to="42859502"/>
    <trip id="bus233" type="bus_bus" depart="268.89" departLane="best" from="-795636117#4" to="-109334391#1"/>
    <trip id="bus234" type="bus_bus" depart="270.04" departLane="best" departSpeed="max" from="-72180491#1" to="42808368"/>
    <trip id="bus235" type="bus_bus" depart="271.20" departLane="best" departSpeed="max" from="551682733#0" to="791547229#0"/>
    <trip id="bus236" type="bus_bus" depart="272.35" departLane="best" from="118916075#3" to="42794436#3"/>
    <trip id="bus237" type="bus_bus" depart="273.51" departLane="best" from="245208091#2" to="29415020#3"/>
    <trip id="bus239" type="bus_bus" depart="275.81" departLane="best" departSpeed="max" from="120273103" to="-120290387#7"/>
    <trip id="bus240" type="bus_bus" depart="276.97" departLane="best" from="-699611806#1" to="371734165#1"/>
    <trip id="bus241" type="bus_bus" depart="278.12" departLane="best" from="103289075#0" to="-305270255#1"/>
    <trip id="bus242" type="bus_bus" depart="279.28" departLane="best" from="157373717#0" to="-28605837"/>
    <trip id="bus243" type="bus_bus" depart="280.43" departLane="best" from="28988276#1" to="-120273105"/>
    <trip id="bus244" type="bus_bus" depart="281.58" departLane="best" departSpeed="max" from="-84710108" to="28882949#1"/>
    <trip id="bus245" type="bus_bus" depart="282.74" departLane="best" from="-120290427#2" to="353610204#2"/>
    <trip id="bus246" type="bus_bus" depart="283.89" departLane="best" from="-29025267#1" to="184686021#2"/>
    <trip id="bus247" type="bus_bus" depart="285.05" departLane="best" from="-165405904#0" to="118521293"/>
    <trip id="bus248" type="bus_bus" depart="286.20" departLane="best" from="-380281281#0" to="-758162576#2"/>
    <trip id="bus249" type="bus_bus" depart="287.35" departLane="best" from="4039037#0" to="118521293"/>
    <trip id="bus250" type="bus_bus" depart="288.51" departLane="best" from="39845090#2" to="568789470"/>
    <trip id="bus251" type="bus_bus" depart="289.66" departLane="best" from="-42834408#5" to="-174580224#1"/>
    <trip id="bus252" type="bus_bus" depart="290.82" departLane="best" from="-120273101#1" to="28605288#3"/>
    <trip id="bus253" type="bus_bus" depart="291.97" departLane="best" from="996821055#5" to="-844475809"/>
    <trip id="bus254" type="bus_bus" depart="293.13" departLane="best" from="29415098" to="46195568#0"/>
    <trip id="bus255" type="bus_bus" depart="294.28" departLane="best" from="29698036#5" to="42808465"/>
    <trip id="bus256" type="bus_bus" depart="295.43" departLane="best" departSpeed="max" from="77991883" to="-370334657"/>
    <trip id="bus257" type="bus_bus" depart="296.59" departLane="best" from="-120290387#12" to="-29162732#0"/>
    <trip id="bus258" type="bus_bus" depart="297.74" departLane="best" departSpeed="max" from="-28881173#2" to="370185646"/>
    <trip id="bus259" type="bus_bus" depart="298.90" departLane="best" from="27184480" to="-39533055#0"/>
    <trip id="bus260" type="bus_bus" depart="300.05" departLane="best" from="35583937#5" to="42859998#0"/>
    <trip id="bus261" type="bus_bus" depart="301.20" departLane="best" from="-350305788#1" to="29698047"/>
    <trip id="bus262" type="bus_bus" depart="302.36" departLane="best" from="38915263#3" to="-27782324#2"/>
    <trip id="bus263" type="bus_bus" depart="303.51" departLane="best" from="49290579#2" to="799470695#3"/>
    <trip id="bus264" type="bus_bus" depart="304.67" departLane="best" from="-28375067#0" to="-120273100#2"/>
    <trip id="bus265" type="bus_bus" depart="305.82" departLane="best" from="-60006634#2" to="371730926#3"/>
    <trip id="bus266" type="bus_bus" depart="306.97" departLane="best" from="794194395#0" to="120290422#8"/>
    <trip id="bus267" type="bus_bus" depart="308.13" departLane="best" from="370195007#5" to="-172085420#1"/>
    <trip id="bus268" type="bus_bus" depart="309.28" departLane="best" from="353610228#4" to="33968247#3"/>
    <trip id="bus269" type="bus_bus" depart="310.44" departLane="best" from="-268867073" to="42861154#6"/>