<?xml version="1.0" encoding="UTF-8"?>
<!-- generated on 2021-10-27 12:06:33.053358 by $Id: ptlines2flows.py v1_3_1+0313-ccb31df3eb jakob.erdmann@dlr.de 2019-09-02 13:26:32 +0200 $ UNKNOWN
  options: 
-->
<routes xmlns:xsi="http://www.w3.org/2001/XMLSchema-instance" xsi:noNamespaceSchemaLocation="http://sumo.dlr.de/xsd/routes_file.xsd">
    <vType id="pt_bus" vClass="bus"/>
    <vType id="pt_tram" vClass="tram"/>
    <vType id="pt_train" vClass="rail"/>
    <vType id="pt_subway" vClass="rail_urban"/>
    <vType id="pt_light_rail" vClass="rail_urban"/>
    <vType id="pt_monorail" vClass="rail"/>
    <vType id="pt_trolleybus" vClass="bus"/>
    <vType id="pt_aerialway" vClass="bus"/>
    <vType id="pt_ferry" vClass="ship"/>
    <route id="pt_bus_20:0" edges="-368614355 132473150 124075434 -124075436#4 -124075436#3 -124075436#2 -124075436#1 -124075436#0 797586882" >
        <stop busStop="5756804740" duration="30.00" until="63.0"/> <!-- Hameau Sisley - Collége Pierre et Marie Curie -->
    </route>
    <route id="pt_bus_367:0" edges="-224992900#1 -224992900#0 -28868084#1 -28868084#0 -799470700 799470701 -38914947 167108273#0 799470696#0 799470696#1 799470696#2 -167105927#5 -167105927#2 -167105927#0" >
        <stop busStop="663127111" duration="30.00" until="92.0"/> <!-- Claude Monet -->
    </route>
    <route id="pt_bus_258:0" edges="23911681#0 23911681#1 23911681#2 23911681#3 23911681#4 229716161 10275365#1 229716160 374808758#0 374808758#1 374808758#2 374808758#3 374808758#4 374808749#0 374808749#1 374808749#2 4039037#0 4039037#1 440105754#2 -681745583 440105753#0 37013692 681745581 10277647 601541594#1" >
        <stop busStop="4971887400" duration="30.00" until="44.0"/> <!-- Bois Préau -->
    </route>
    <route id="pt_bus_258:1" edges="10277647 601541594#1 440105752#1 10275364#0 10275364#1 10275364#2 10275364#3 374808750#0 374808750#1 374808745#0 374808745#1 374808745#2 374808745#3 374808745#4 374808745#5 374808745#6 173552468#1 173552468#2 229716161 10275365#1 229716160 374808758#0 374808758#1 374808758#2 374808758#3 374808755 374808750#1 374808745#0 374808745#1 374808745#2 40254005#0 40254005#1 374808745#5 374808745#6 374808745#7 374808745#9" >
        <stop busStop="1191785020" duration="30.00" until="109.0"/> <!-- Le Château -->
        <stop busStop="1191784755" duration="30.00" until="222.0"/> <!-- École la Malmaison -->
    </route>
    <route id="pt_bus_564:0" edges="25299571 229716183 440112128 173552468#0 173552468#1 173552468#2 229716161 10275365#1 229716160 374808758#0 374808758#1 374808758#2 374808758#3 374808755 374808750#1 374808745#0 45984216#0 45984216#1 173553505#0 173553505#1 172323277#1 -44772287 35016314#1 -35016314#1 35016314#1 35016314#2" >
        <stop busStop="-5592618329" duration="30.00" until="263.0"/> <!-- Bergerie -->
    </route>
    <route id="pt_bus_367:1" edges="167105927#0 167105927#2 167105927#5 799470695#0 799470695#1 799470695#2 799470695#3 799470698#1 38914947 799470702 799470700 28868084#0 28868084#1 224992900#0 224992900#1" >
        <stop busStop="663127113" duration="30.00" until="62.0"/> <!-- Claude Monet -->
    </route>
    <route id="pt_bus_C:1" edges="28712829#0 28712829#1 28712823#0 28712823#3 791547219#0 791547219#2 26198066#0 26198066#1 26198066#2 26198066#3 26198066#4 26198066#5 26198066#6 26198066#7 26198066#8 794808872#0 794808872#1 794808872#2 794808851#1 28392896" >
        <stop busStop="4758524063" duration="30.00" until="68.0"/> <!-- Jules Ferry -->
        <stop busStop="7624279543" duration="30.00" until="160.0"/> <!-- Charmettes -->
        <stop busStop="431659653" duration="30.00" until="221.0"/> <!-- Belloy -->
    </route>
    <route id="pt_bus_T:0" edges="-28915874#1 -28915874#0 -794194395#1 -794194395#0 -40949638#2" >
        <stop busStop="-5676187340" duration="30.00" until="33.0"/> <!-- Renoir -->
        <stop busStop="-5676187339" duration="30.00" until="115.0"/> <!-- Maurice de Vlaminck -->
    </route>
    <route id="pt_bus_C:0" edges="28392896 760852289 577403209 77148435 -794808851#1 -794808872#2 -794808872#1 -794808872#0 -26198066#8 -26198066#7 -26198066#6 -26198066#5 -26198066#4 -26198066#3 -26198066#2 -26198066#1 -26198066#0 -791547219#2 -791547219#0 -28712823#3 -28712823#0 -28712829#1 -28712829#0" >
        <stop busStop="-431659653" duration="30.00" until="156.0"/> <!-- Belloy -->
        <stop busStop="-431659640" duration="30.00" until="235.0"/> <!-- Charmettes -->
        <stop busStop="-4758524063" duration="30.00" until="314.0"/> <!-- Jules Ferry -->
    </route>
    <route id="pt_bus_21S:0" edges="-795789063 250295033#3 35583523#0 35583523#1 30102955#1 30102955#2 77113411 77113416 878853562#1 77032836#0 77032836#1 795795136#0 -708610536 -26194814 -30251511#1 26197891#0 26197891#1 26197891#3 26197891#5 28888977#0 28888977#1 28888977#3 28888977#4 28888977#5 28888977#6 608032199" >
        <stop busStop="7681539010" duration="30.00" until="120.0"/> <!-- Alain -->
        <stop busStop="7624109098" duration="30.00" until="429.0"/> <!-- Jacques Cartier -->
    </route>
    <route id="pt_train_L:0" edges="554034395#1 37438463#1 37438463#2" >
        <stop busStop="5347188662" duration="30.00" until="72.0"/> <!-- Marly-le-Roi -->
        <stop busStop="5347188661" duration="30.00" until="216.0"/> <!-- L'Étang-la-Ville -->
    </route>
    <route id="pt_train_L:1" edges="681346058 192681887#1 192681887#2 192681887#3" >
        <stop busStop="1408978024" duration="30.00" until="170.0"/> <!-- L'Étang-la-Ville -->
        <stop busStop="2032291719" duration="30.00" until="320.0"/> <!-- Marly-le-Roi -->
    </route>
    <route id="pt_bus_F:0" edges="28392896 760852289 577403209 77148435 -794808851#1 -28392964#3 -28392964#2 -28392964#1 -28392964#0 -28375067#6 -24504747 174422972#1 174422970#0 174422970#1" >
        <stop busStop="7681335264" duration="30.00" until="136.0"/> <!-- Champs Maraîchers -->
        <stop busStop="7681335265" duration="30.00" until="192.0"/> <!-- Franklin Roosevelt -->
    </route>
    <route id="pt_bus_L:4" edges="-28939393#5 -28939393#3 -28939393#2 -28939393#1 84701570#0 84701570#1 84701570#2 84701570#3 791547233 791547232#1 791547234 263959609#0 263959609#1 263959609#2 -663811747 -28925445#4 -28925445#3 -28925445#2 -28925445#1 -28925445#0 29164017#0 29164017#1 791547229#0 791547229#1 791547229#2 29163863#0 29163863#1 28925436#0 28925436#1 107115511#0 107115511#1 28915915 -28825543#5 -28825543#4 -28825543#3 -28825543#2 -28825543#1 -28825543#0" >
        <stop busStop="-7624279541" duration="30.00" until="37.0"/> <!-- Égalité -->
    </route>
    <route id="pt_bus_D:0" edges="28607143 -693685351 28605145 29050180#0 29050180#1 -29050172#0 -693685350#2 -693685350#1 -693685350#0 371924815#0 371924815#1 371924815#2 371924815#3 371924815#4 371924815#5 371924815#7 371924815#8 371924814#0 371924814#1 26197244 370155236#0 370155236#2 370155236#3 370155236#4 370155236#5 370155236#6 370155236#8 370159253#0 370159253#2 521384730 521384727#1 39362944 -174870984 -174870990#2 -174870990#1 -699429163#1 -26196378#1 -590805901 -22753551#0 196723255#0 681730853#0 681730853#1 196723254 195780047 681730840#0" >
        <stop busStop="5717925685" duration="30.00" until="175.0"/> <!-- La Roseraie -->
        <stop busStop="5717925684" duration="30.00" until="236.0"/> <!-- Verdun -->
        <stop busStop="5937939992" duration="30.00" until="305.0"/> <!-- Patte d'Oie -->
        <stop busStop="5937939991" duration="30.00" until="367.0"/> <!-- Les Moulins -->
        <stop busStop="5937939990" duration="30.00" until="434.0"/> <!-- Augier -->
        <stop busStop="-2015011195" duration="30.00" until="507.0"/> <!-- Pont de Bougival -->
    </route>
    <route id="pt_bus_27:0" edges="601541594#1 440105752#1 10275364#0 10275364#1 10275364#2 10275364#3 374808750#0 374808750#1 374808745#0 374808745#1 374808745#2 374808745#3 374808745#4" >
        <stop busStop="5716730562" duration="30.00" until="38.0"/> <!-- La Jonchère -->
        <stop busStop="1191785962" duration="30.00" until="104.0"/> <!-- Le Parc -->
        <stop busStop="1191784755" duration="30.00" until="164.0"/> <!-- École la Malmaison -->
        <stop busStop="1191785020" duration="30.00" until="222.0"/> <!-- Le Château -->
    </route>
    <route id="pt_train_A:1" edges="10445257#0 10445257#1 32930370#0 32930370#1 422071411 422071413 161102912#1 161102912#2" >
        <stop busStop="87360108" duration="30.00" until="31.0"/> <!-- Saint-Germain-en-Laye -->
        <stop busStop="286909340@2333439" duration="30.00" until="216.0"/> <!-- Le Vésinet - Le Pecq -->
        <stop busStop="1806123617@2333439" duration="30.00" until="356.0"/> <!-- Le Vésinet Centre -->
        <stop busStop="1730998232" duration="30.00" until="485.0"/> <!-- Chatou - Croissy -->
    </route>
    <route id="pt_bus_27:1" edges="23911681#0 23911681#1 23911681#2 23911681#3 23911681#4 229716161 10275365#1 229716160 374808758#0 374808758#1 374808758#2 374808758#3 374808758#4 374808749#0 374808749#1 374808749#2 4039037#0 4039037#1 440105754#2 -681745583 440105753#0 37013826#0 37013826#1 37013826#2 37013826#3 663885322 699611806#0 699611806#1 699611806#2 715426454 699612565 715426456#0 715426456#1 715426456#2" >
        <stop busStop="1191788726" duration="30.00" until="116.0"/> <!-- Le Château -->
    </route>
    <route id="pt_bus_B:0" edges="168754053#0 168754053#1 168754053#4 8276419#0 8276419#1 174854357#0 280234182 28605093#0 28605093#1 28605093#2 28605093#3 28605093#4 28605093#5 28605093#6 28605093#7 933836386 -806567432#4 -806567432#3 -806567432#2 -806567432#1 -806567432#0 -29160367 29160405 794480821#0 794480821#1 -794480822#0 -576355757#1 -576355757#0 -35359313#5 -35359313#4 -35359313#3 -35359313#1 -35359313#0 -35359347#1 -35359347#0 -28368126#2 28916115#0 28916115#1 28916115#2 794480823#0 794480823#1 794194397#0 794194397#1 99449678#0 99449678#1 118521293 265608996#2 265608996#3 265608996#4 794480825 791547225 860470840 791547224#0 791547224#1 28915891#0 28915891#1 -28915874#1 -28915874#0 -794194395#1 -794194395#0 794194394#0 794194394#1 794194394#2 794194394#3" >
        <stop busStop="7641045922" duration="30.00" until="120.0"/> <!-- Mairie (Chatou) -->
        <stop busStop="2572164520" duration="30.00" until="153.0"/> <!-- Mairie -->
        <stop busStop="-7641045919" duration="30.00" until="225.0"/> <!-- Paul Bert -->
        <stop busStop="-7641045934" duration="30.00" until="339.0"/> <!-- République Pathé -->
        <stop busStop="-7641045933" duration="30.00" until="408.0"/> <!-- République Leclerc -->
        <stop busStop="-7641045932" duration="30.00" until="472.0"/> <!-- Claude Monet -->
        <stop busStop="-7624279544" duration="30.00" until="565.0"/> <!-- Renoir -->
        <stop busStop="-7624279554" duration="30.00" until="635.0"/> <!-- Maurice de Vlaminck -->
    </route>
    <route id="pt_bus_24:1" edges="23139725#0 23139725#1 23139725#2 23139725#3 23139725#4 23139725#5 23139725#7 684832986 286478265#0 286478265#1 353254007#0 353254007#1 42831981 42831972#0 42831972#1 877615341 35332800#0 35332800#1 35332802#0 35332802#1 42827033#0 42827029 353259119#0 28882882#1 286478281#0 286478281#1 286478278 666436853" >
        <stop busStop="1686062581" duration="30.00" until="82.0"/> <!-- Place Vauban -->
        <stop busStop="5668122992" duration="30.00" until="149.0"/> <!-- Jehan Alain -->
    </route>
    <route id="pt_bus_R1:0" edges="172205687#0 172205687#1 172205687#2 -245208090#3 -245208090#2 -245208090#0 174682500#0 174682500#1 541090131 541090100#0 541090100#1 541090100#2 541090100#3 541090099#1 42860805#1 42860805#2 42860805#3 702631151 42860858#0 42860858#1 42860858#2 42860725#2 -353249786#1 -353249786#0 -172192378#6 -172192378#5 -172192378#4 -172192378#3 -172192378#2 -172192378#1 -172192378#0 172192380#0 172192380#1 172192403#0 172192403#1 172192403#2 680348060 680348065 680348064 172192385 172192399 680348066#0 680348066#1 680348066#2 680348066#3 172192401 989349620#0 989349620#1 760955337 22604576#1 989349623#0 353254014 -321288717#1 -321288717#0 -42859329 22604578#0 22604578#1 162108050 179491896 162108049#0 162108049#3 162108049#4 162108049#5 162108049#6 162108049#7 42827033#0 42827029 353259119#0 28882882#1 286478281#0 286478281#1 286478278 666436853" >
        <stop busStop="5722098866" duration="30.00" until="68.0"/> <!-- Place des Rotondes -->
        <stop busStop="5722098865" duration="30.00" until="168.0"/> <!-- Gare du Bel Air -->
        <stop busStop="-4328365456" duration="30.00" until="246.0"/> <!-- Nicot -->
        <stop busStop="6598371022" duration="30.00" until="310.0"/> <!-- Sous-Préfecture -->
        <stop busStop="5360830021" duration="30.00" until="383.0"/> <!-- Place Sainte-Catherine -->
        <stop busStop="4324487762" duration="30.00" until="486.0"/> <!-- Joffre -->
        <stop busStop="6598228491" duration="30.00" until="562.0"/> <!-- Rue de la Salle -->
    </route>
    <route id="pt_bus_G:1" edges="28888986#0 28888986#1 28888986#2 28888986#3 28888986#4 28888986#5 28888986#7 795789061#0 795789061#1 795789061#2 795789061#3 795789061#5 795789061#6 -26197891#5 -26197891#3 -26197891#2 -26197891#0 30251511#0 26197859#0 26197859#2 -427795683#1 -427795683#0 -956327440 -427795684 59577047" >
        <stop busStop="4763873424" duration="30.00" until="57.0"/> <!-- Rue de Seine -->
        <stop busStop="-5761221487" duration="30.00" until="118.0"/> <!-- Jacques Cartier -->
        <stop busStop="-5756804735" duration="30.00" until="212.0"/> <!-- République -->
    </route>
    <route id="pt_bus_3:1" edges="23139725#0 23139725#1 23139725#2 23139725#3 23139725#4 23139725#5 23139725#7 684832986 286478265#0 286478265#1 353254007#0 353254007#1 42831981 42831972#0 42831972#1 877615341 35332800#0 35332800#1 35332802#0 35332802#1 42827033#0 42827029 353259119#0 28882882#1 286478281#0 286478281#1 666436854#0 666436854#1 666436854#2 666436854#3" >
        <stop busStop="5668122992" duration="30.00" until="155.0"/> <!-- Jehan Alain -->
    </route>
    <route id="pt_bus_24:0" edges="666436856#0 666436856#1 666436858 286478273#0 286478273#1 353259118 42826993#0 -35332802#1 -35332802#0 35332697 877615338 -877615341 -42831972#1 -42831972#0 -42831981 -35396292 -353254007#0 -286478265#1 -286478265#0 -684832986 -23139725#7 -23139725#5 -23139725#4 -23139725#3 -23139725#2 -23139725#1 -23139725#0" >
        <stop busStop="-1686058306" duration="30.00" until="160.0"/> <!-- Jehan Alain -->
        <stop busStop="-5668122988" duration="30.00" until="226.0"/> <!-- Place Vauban -->
    </route>
    <route id="pt_bus_L:5" edges="28825543#0 28825543#1 28825543#2 28825543#3 28825543#4 28825543#5 28915914 791547224#0 791547224#1 791547226 794194396 794480825 107115512#0 107115512#1 -28925436#1 -28925436#0 29163831#0 29163831#1 29163570#0 29163570#1 29163570#2 29163927#0 29163927#1 28925445#0 28925445#1 28925445#2 28925445#3 28925445#4 663811747 -263959609#2 -263959609#1 -263959609#0 263959610#0 263959610#1 -84701570#3 -84701570#2 -84701570#1 -84701570#0 28939393#1 28939393#2 28939393#3 28939393#4" >
        <stop busStop="8108500500" duration="30.00" until="61.0"/> <!-- Maupassant -->
        <stop busStop="7624279555" duration="30.00" until="149.0"/> <!-- Collège Auguste Renoir -->
        <stop busStop="7624279548" duration="30.00" until="204.0"/> <!-- Parc de l'Europe -->
        <stop busStop="7624279539" duration="30.00" until="298.0"/> <!-- Monceau -->
        <stop busStop="7624279540" duration="30.00" until="351.0"/> <!-- Bercail -->
    </route>
    <route id="pt_bus_21S:1" edges="795789061#0 795789061#1 795789061#2 795789061#3 795789061#5 795789061#6 -26197891#5 -26197891#3 -26197891#2 -26197891#0 30251511#0 26194814 708610536 795795138 -797519594 -77032835 77032838 30102889 797090850 77032848#0 77032848#1 -35583530#1 -35583530#0 -795789063" >
        <stop busStop="-286860362" duration="30.00" until="62.0"/> <!-- Jacques Cartier -->
        <stop busStop="-7681539009" duration="30.00" until="276.0"/> <!-- Alain -->
    </route>
    <route id="pt_bus_R4:0" edges="666436858 286478273#0 286478273#1 353259118 42826993#0 -35332802#1 -35332802#0 35332697 877615338 -877615341 -42831972#1 -42831972#0 -42831981 -35396292 -353254007#0 -286478265#1 -286478265#0 -684832986 172210285#1 -320010013#2 -320010013#1 -286506390#5 -286506390#4 -286506390#3 -286506390#1 -286506390#0 -42825897#4 -42825897#3 -42825897#1 -42825897#0 -695940569 -42825898 -286506391#4 -286506391#3 -286506391#2 -286506391#1 -702617152#2 -702617152#1 -702617152#0 -149544540#4 -149544540#2 -149544540#1 149544541#0 149544541#1 56004484#2 56004494#0 56004494#1 727236152 987434538 286506396#0 286506396#2 799408878#0 799408878#1 32649993#3 32649993#4 32649993#5 32649993#6 172208372#0 172208372#1 -808050792 -808050791#0 168845830#3 168845830#4 -77991878 77993635 77993629 -77993624#1 -77993624#0 684817941" >
        <stop busStop="-5722250078" duration="30.00" until="62.0"/> <!-- République -->
        <stop busStop="2901561315" duration="30.00" until="115.0"/> <!-- Les Écuyers -->
        <stop busStop="-1686058306" duration="30.00" until="173.0"/> <!-- Jehan Alain -->
        <stop busStop="-2901561318" duration="30.00" until="238.0"/> <!-- Mermoz -->
        <stop busStop="-6220241942" duration="30.00" until="316.0"/> <!-- Square Forest -->
        <stop busStop="-2901561312" duration="30.00" until="402.0"/> <!-- Grande Ceinture -->
        <stop busStop="-2901561322" duration="30.00" until="466.0"/> <!-- Péreire -->
        <stop busStop="-2901561304" duration="30.00" until="646.0"/> <!-- Chemin Neuf -->
        <stop busStop="2901561310" duration="30.00" until="697.0"/> <!-- Georges Thill -->
    </route>
    <route id="pt_bus_3:0" edges="666436854#0 666436854#1 666436854#2 666436854#3 705924923 286478273#0 286478273#1 353259118 42826993#0 -35332802#1 -35332802#0 35332697 877615338 -877615341 -42831972#1 -42831972#0 -42831981 -35396292 -353254007#0 -286478265#1 -286478265#0 -684832986 -23139725#7 -23139725#5 -23139725#4 -23139725#3 -23139725#2 -23139725#1 -23139725#0" >
        <stop busStop="-1686058306" duration="30.00" until="175.0"/> <!-- Jehan Alain -->
        <stop busStop="-5668122988" duration="30.00" until="241.0"/> <!-- Place Vauban -->
    </route>
    <route id="pt_bus_18S:1" edges="429294963 28355198 28355381#1 585504520 957164332 128206711 19907047#0 51412669#0 51412669#1 956661478 956661477#0 956661477#1 51412670#0 25862642#0 25862642#2 572427004 783835218 783835219 128206714#0 128206714#3 572427001 761939849 128206714#3 572427005#1 572427005#2 572367926#0 572367926#1 572367926#2 572367924#0 572367924#1 428222506#0 428222506#1 428222506#2 37549187 37549217 572427017#2" >
        <stop busStop="1192735114@8268258" duration="30.00" until="78.0"/> <!-- Val André -->
        <stop busStop="6166055480" duration="30.00" until="147.0"/> <!-- Ancienne Mairie -->
        <stop busStop="7659912657" duration="30.00" until="210.0"/> <!-- La Source -->
        <stop busStop="6166055479" duration="30.00" until="262.0"/> <!-- Marly-Soleil -->
        <stop busStop="4273545476" duration="30.00" until="317.0"/> <!-- Marly Soleil -->
        <stop busStop="7657520070" duration="30.00" until="382.0"/> <!-- Saint-Fiacre -->
        <stop busStop="5595002570" duration="30.00" until="456.0"/> <!-- Glaxo Rougemonts -->
    </route>
    <route id="pt_bus_T:1" edges="40949638#0 40949638#1 40949638#2 794194395#0 794194395#1 28915874#0 28915874#1 28915885#0 28915885#1 173193184#0 173193184#1 173193184#2 -118521293 28925466#0 28925466#1 28916103 28916120#0 28916120#1 28916120#2 28368126#2 35359347#0 35359347#1 29163184#0 29163184#1 29163184#2 29163184#3 35359316 29160955#3 29162983#0 29162983#1 29162983#2 29160954#0 29160954#1 29160891 933836385#0 933836385#1 331078065#2 28605093#3 28605093#4" >
        <stop busStop="5676187359" duration="30.00" until="39.0"/> <!-- Ribot - Barbier -->
        <stop busStop="4332194120" duration="30.00" until="105.0"/> <!-- Maurice de Vlaminck -->
        <stop busStop="5676187357" duration="30.00" until="171.0"/> <!-- Renoir -->
        <stop busStop="2572164520" duration="30.00" until="430.0"/> <!-- Mairie -->
    </route>
    <route id="pt_bus_23:0" edges="103289122#1 103289122#3 658449236 -23139964#7 -23139964#6 -23139964#5 -23139964#4 -23139964#3 -23139964#2 -23139964#1 -23139964#0 42793507 172205692 -353254016 -42793509 42793784 29698047 760952683#0 42807366#0 42807366#3 42807366#4 42807366#5 42807366#6 42807366#7 678131691 353254018#0 353254018#1 82804924#0" >
        <stop busStop="1192735261" duration="30.00" until="56.0"/> <!-- Place Royale -->
        <stop busStop="-5447580458" duration="30.00" until="135.0"/> <!-- Alexandre Bertrand -->
        <stop busStop="-535098814" duration="30.00" until="202.0"/> <!-- L'Ermitage -->
        <stop busStop="6185663281" duration="30.00" until="301.0"/> <!-- Pontel -->
        <stop busStop="536440784" duration="30.00" until="352.0"/> <!-- Quatre Chemins -->
    </route>
    <route id="pt_bus_21:2" edges="-35332802#1 -35332802#0 35332697 877615338 -877615341 -42831972#1 -42831972#0 -42831981 -35396292 -353254007#0 -286478265#1 -286478265#0 -684832986 172210285#1 -320010013#2 -320010013#1 -286506390#5 -286506390#4 -286506390#3 -286506390#1 -286506390#0 -42825897#4 -42825897#3 -42825897#1 -42825897#0 -695940569 -42825898 -286506391#4 -286506391#3 -286506391#2 -286506391#1 -702617152#2 -702617152#1 -702617152#0 -149544540#4 -149544540#2" >
        <stop busStop="-5722250078" duration="30.00" until="41.0"/> <!-- République -->
        <stop busStop="-1686058306" duration="30.00" until="109.0"/> <!-- Jehan Alain -->
        <stop busStop="-6220241942" duration="30.00" until="213.0"/> <!-- Square Forest -->
        <stop busStop="-2901561322" duration="30.00" until="319.0"/> <!-- Péreire -->
    </route>
    <route id="pt_bus_23:1" edges="-82804924#1 -82804924#0 -353254018#1 -353254018#0 -678131691 -42807366#7 -42807366#6 -42807366#5 -42807366#4 -42807366#3 -42807366#2 -760952683#1 -29698047 -42800120 42793509 353254016 42793524 353610300 23139964#0 23139964#1 23139964#2 23139964#3 23139964#4 23139964#5 23139964#6" >
        <stop busStop="-6185664289" duration="30.00" until="37.0"/> <!-- Quatre Chemins -->
        <stop busStop="-6185664288" duration="30.00" until="91.0"/> <!-- Pontel -->
        <stop busStop="535098971" duration="30.00" until="207.0"/> <!-- L'Ermitage -->
        <stop busStop="5447580461" duration="30.00" until="271.0"/> <!-- Alexandre Bertrand -->
        <stop busStop="5447580472" duration="30.00" until="339.0"/> <!-- Giraud Teulon -->
    </route>
    <route id="pt_bus_B:1" edges="-794194394#3 -794194394#2 -794194394#1 -794194394#0 794194395#0 794194395#1 28915874#0 28915874#1 28915885#0 28915885#1 173193184#0 173193184#1 173193184#2 -118521293 28925466#0 28925466#1 28916103 28916120#0 28916120#1 28916120#2 28368126#2 35359347#0 35359347#1 35359313#0 35359313#1 35359313#3 35359313#4 35359313#5 576355757#0 576355757#1 794480822#0 794480822#1 28697034#0 28697034#1 29160367 806567431 806567432#1 806567432#2 806567432#3 806567432#4 28706171 933836385#0 933836385#1 25298149 280234183 174854356#0 174854356#1 28954509 8431341#1 8431341#5" >
        <stop busStop="7624279554" duration="30.00" until="69.0"/> <!-- Maurice de Vlaminck -->
        <stop busStop="7624279544" duration="30.00" until="134.0"/> <!-- Renoir -->
        <stop busStop="7641045932" duration="30.00" until="214.0"/> <!-- Claude Monet -->
        <stop busStop="7641045933" duration="30.00" until="276.0"/> <!-- République Leclerc -->
        <stop busStop="7641045935" duration="30.00" until="346.0"/> <!-- République Pathé -->
        <stop busStop="7641045918" duration="30.00" until="481.0"/> <!-- Paul Bert -->
        <stop busStop="7641045921" duration="30.00" until="553.0"/> <!-- Mairie (Chatou) -->
        <stop busStop="6166185001" duration="30.00" until="585.0"/> <!-- Mairie -->
    </route>
    <route id="pt_bus_G:0" edges="59577047 708701687#1 77093916#0 77093916#1 26197592 956327446 806568654#0 806197196 26197561#0 26197561#1 26197561#2 368604098#0 368604098#1 -30251511#1 26197891#0 26197891#1 26197891#3 26197891#5 28888977#0 28888977#1 28888977#3 28888977#4 28888977#5 28888977#6 608032199 795795132#0 795795132#1 795795132#2 795795132#3 684510532" >
        <stop busStop="5761221484" duration="30.00" until="103.0"/> <!-- République -->
        <stop busStop="4320216124" duration="30.00" until="316.0"/> <!-- Jacques Cartier -->
        <stop busStop="5761221482" duration="30.00" until="379.0"/> <!-- Rue de Seine -->
    </route>
    <route id="pt_bus_B:2" edges="168754053#0 168754053#1 168754053#4 8276419#0 8276419#1 174854357#0 280234182 28605093#0 28605093#1 28605093#2 28605093#3 28605093#4 28605093#5 28605093#6 28605093#7 933836386 -806567432#4 -806567432#3 -806567432#2 -806567432#1 -806567432#0 -29160367 29160405 794480821#0 794480821#1 -794480822#0 -576355757#1 -576355757#0 -35359313#5 -35359313#4 -35359313#3 -35359313#1 -35359313#0 -35359347#1 -35359347#0 -28368126#2 28916115#0 28916115#1 28916115#2 794480823#0 794480823#1 794194397#0 794194397#1 99449678#0 99449678#1 118521293 265608996#2 265608996#3 265608996#4 794480825 791547225 860470840 791547224#0 791547224#1 28915891#0 28915891#1 -28915874#1 -28915874#0 -794194395#1 -794194395#0 794194394#0 794194394#1 794194394#2 794194394#3" >
        <stop busStop="7641045922" duration="30.00" until="118.0"/> <!-- Mairie (Chatou) -->
        <stop busStop="2572164520" duration="30.00" until="151.0"/> <!-- Mairie -->
        <stop busStop="-7641045919" duration="30.00" until="234.0"/> <!-- Paul Bert -->
        <stop busStop="-7641045934" duration="30.00" until="345.0"/> <!-- République Pathé -->
        <stop busStop="-7641045933" duration="30.00" until="430.0"/> <!-- République Leclerc -->
        <stop busStop="-7641045932" duration="30.00" until="495.0"/> <!-- Claude Monet -->
        <stop busStop="-7624279544" duration="30.00" until="589.0"/> <!-- Renoir -->
        <stop busStop="-7624279554" duration="30.00" until="658.0"/> <!-- Maurice de Vlaminck -->
    </route>
    <route id="pt_bus_C:2" edges="28392896 760852289 577403209 77148435 -794808851#1 -794808872#2 -794808872#1 -794808872#0 -26198066#8 -26198066#7 -26198066#6 -26198066#5 -26198066#4 -26198066#3 -26198066#2 -26198066#1 -26198066#0 -791547219#2 -791547219#0 -28712823#3 -28712823#0 -28712829#1 -28712829#0" >
        <stop busStop="-431659653" duration="30.00" until="148.0"/> <!-- Belloy -->
        <stop busStop="-431659640" duration="30.00" until="224.0"/> <!-- Charmettes -->
        <stop busStop="-4758524063" duration="30.00" until="298.0"/> <!-- Jules Ferry -->
        <stop busStop="-315642082" duration="30.00" until="361.0"/> <!-- Aristide Briand -->
    </route>
    <route id="pt_bus_21:3" edges="149544540#2 149544540#4 702617152#0 702617152#1 702617152#2 286506391#1 286506391#2 286506391#3 286506391#4 286506391#6 695940569 42825897#0 42825897#1 42825897#2 42825897#4 -28882964#10 -28882964#9 -28882964#8 -28882964#4 -28882964#3 -28882964#2 -28882964#1 35396355#0 35396355#1 35396355#3 35396355#4 35396355#5 35396355#6 28033623#1 698499414 353254007#0 353254007#1 42831981 42831972#0 42831972#1 877615341 35332800#0 35332800#1 35332802#0 35332802#1 42827033#0 42827029 353259119#0 265753970#1 265753973#0 265753973#1 265753973#2 25207277#1 42828807#0 565724691#0 565724691#1 583373333#0 583373333#1 103289122#0 103289122#1" >
        <stop busStop="2901561321" duration="30.00" until="43.0"/> <!-- Péreire -->
        <stop busStop="5722098859" duration="30.00" until="183.0"/> <!-- Centre Administratif -->
        <stop busStop="5668122992" duration="30.00" until="257.0"/> <!-- Jehan Alain -->
        <stop busStop="4997917321" duration="30.00" until="323.0"/> <!-- République -->
        <stop busStop="3594255205" duration="30.00" until="392.0"/> <!-- Rue Saint-Louis -->
        <stop busStop="1192735261" duration="30.00" until="448.0"/> <!-- Place Royale -->
    </route>
    <route id="pt_bus_D:1" edges="185354151#0 -196723254 64447299 681730830 681730851 681730852#0 681730852#1 22753551#0 22753551#1 26196378#0 699429163#0 174870990#0 174870990#2 174870990#3 26196245#0 370159249 521384729 39362945#0 39362945#1 -370155236#8 -370155236#6 -370155236#5 -370155236#4 -370155236#3 -370155236#2 -370155236#0 -26197244 -371924814#1 -371924814#0 -371924815#8 -371924815#7 -371924815#5 -371924815#4 -371924815#3 -371924815#2 -371924815#1 -371924815#0 28605266#0 28605266#1 28605266#2 28605266#3 371752780#0 371752780#2 28607136#0 28607136#1 28607136#2 693685351 427788284#0 155438226#0 155438226#1 -506093859 506093859" >
        <stop busStop="1820540862" duration="30.00" until="137.0"/> <!-- Pont de Bougival -->
        <stop busStop="5937935977" duration="30.00" until="224.0"/> <!-- Augier -->
        <stop busStop="-5937935976" duration="30.00" until="309.0"/> <!-- Les Moulins -->
        <stop busStop="-5937935975" duration="30.00" until="375.0"/> <!-- Patte d'Oie -->
        <stop busStop="-5717925667" duration="30.00" until="444.0"/> <!-- Verdun -->
        <stop busStop="-5717925666" duration="30.00" until="509.0"/> <!-- La Roseraie -->
        <stop busStop="4269667282" duration="30.00" until="572.0"/> <!-- La Chapelle -->
    </route>
    <route id="pt_bus_14:0" edges="799408877#0 799408877#1 32650617 32650463#0 32650463#2 157373716#1 157373716#3 157373716#4 700363763 700363764 545639983 684836609 286506392#1 286506392#2 286506392#3 286506392#5 286506392#6 286506392#7 827146974#0 827146974#1 827146973#1 827146973#2 827146973#3 827146972#0 827146972#1 172205701#2 42860105#1 255558766 42878571 172205687#0 172205687#1 172205687#2 -245208090#3 -245208090#2 -245208090#0 174682500#0 174682500#1 541090131 541090100#0 541090100#1 541090100#2 541090100#3 541090099#1 42860805#1 42860805#2 42860805#3 702631151 702631238 42860725#2 -353249786#1 -353249786#0 -172192378#6 -172192378#5 -172192378#4 -172192378#3 -172192378#2 -172192378#1 -172192378#0" >