<?xml version="1.0" encoding="UTF-8"?>

<!-- generated on 2021-10-27 12:06:02 by Eclipse SUMO netconvert Version 1.10.0
<configuration xmlns:xsi="http://www.w3.org/2001/XMLSchema-instance" xsi:noNamespaceSchemaLocation="http://sumo.dlr.de/xsd/netconvertConfiguration.xsd">

    <input>
        <type-files value="/usr/local/opt/sumo/share/sumo/data/typemap/osmNetconvert.typ.xml"/>
        <osm-files value="osm_bbox.osm.xml"/>
    </input>

    <output>
        <output-file value="osm.net.xml"/>
        <output.street-names value="true"/>
        <output.original-names value="true"/>
        <ptstop-output value="osm_stops.add.xml"/>
        <ptline-output value="osm_ptlines.xml"/>
    </output>

    <projection>
        <proj.utm value="true"/>
    </projection>

    <processing>
        <geometry.remove value="true"/>
        <roundabouts.guess value="true"/>
    </processing>

    <tls_building>
        <tls.discard-simple value="true"/>
        <tls.join value="true"/>
        <tls.guess-signals value="true"/>
        <tls.default-type value="actuated"/>
    </tls_building>

    <ramp_guessing>
        <ramps.guess value="true"/>
    </ramp_guessing>

    <junctions>
        <junctions.join value="true"/>
        <junctions.corner-detail value="5"/>
    </junctions>

    <railway>
        <railway.topology.repair value="true"/>
        <railway.topology.repair.stop-turn value="true"/>
    </railway>

    <report>
        <verbose value="true"/>
        <aggregate-warnings value="5"/>
    </report>

</configuration>
-->

<additional xmlns:xsi="http://www.w3.org/2001/XMLSchema-instance" xsi:noNamespaceSchemaLocation="http://sumo.dlr.de/xsd/additional_file.xsd">
    <busStop id="-1279124392" name="Piscine" lane="-29698038#0_0" startPos="17.68" endPos="32.68" friendlyPos="true" lines="9D 9AB"/>
    <busStop id="-1679793174" name="Christiane Frahier" lane="-286506387#4_0" startPos="18.53" endPos="31.84" friendlyPos="true" lines="R2-Sud"/>
    <busStop id="-1686058306" name="Jehan Alain" lane="-35396292_0" startPos="52.39" endPos="67.39" friendlyPos="true" lines="R4 R2-Nord 24 3"/>
    <busStop id="-1731764049" name="Saint-Germain-en-Laye" lane="-161180860#2_0" startPos="0.00" endPos="100.83" friendlyPos="true">
        <access lane="298584102_0" pos="9.34" length="10.76" friendlyPos="1"/>
        <access lane="298584105_0" pos="2.08" length="6.77" friendlyPos="1"/>
        <access lane="298584106_0" pos="4.90" length="3.37" friendlyPos="1"/>
        <access lane="35336334#0_0" pos="0.00" length="9.69" friendlyPos="1"/>
        <access lane="629797752_0" pos="33.58" length="12.30" friendlyPos="1"/>
    </busStop>
    <busStop id="-2015011195" name="Pont de Bougival" lane="-22753551#0_0" startPos="61.21" endPos="76.21" friendlyPos="true" lines="D"/>
    <busStop id="-2032349248" name="Gare de Marly-le-Roi - Bèque" lane="-427848448#0_0" startPos="0.00" endPos="4.31" friendlyPos="true" lines="10"/>
    <busStop id="-2670875458" name="Gare de Mareil-Marly" lane="-784011539#2_0" startPos="32.55" endPos="45.66" friendlyPos="true" lines="R5"/>
    <busStop id="-2714473475" name="Village d&apos;Hennemont" lane="-286506392#1_0" startPos="65.63" endPos="79.62" friendlyPos="true" lines="R2-Sud"/>
    <busStop id="-286860362" name="Jacques Cartier" lane="-26197891#5_0" startPos="16.00" endPos="31.00" friendlyPos="true" lines="21S"/>
    <busStop id="-2901561304" name="Chemin Neuf" lane="-77991878_0" startPos="24.29" endPos="39.29" friendlyPos="true" lines="R4"/>
    <busStop id="-2901561306" name="Châtaigneraie" lane="-684817941_0" startPos="16.53" endPos="31.53" friendlyPos="true" lines="R4"/>
    <busStop id="-2901561312" name="Grande Ceinture" lane="-286506391#4_0" startPos="27.07" endPos="42.07" friendlyPos="true" lines="R4 R2-Nord"/>
    <busStop id="-2901561318" name="Mermoz" lane="-320010013#2_0" startPos="55.48" endPos="70.48" friendlyPos="true" lines="R4 R2-Nord"/>
    <busStop id="-2901561322" name="Péreire" lane="-149544540#2_0" startPos="23.13" endPos="38.13" friendlyPos="true" lines="R4 R2-Nord"/>
    <busStop id="-315642082" name="Aristide Briand" lane="-28712829#0_0" startPos="82.23" endPos="97.23" friendlyPos="true" lines="C"/>
    <busStop id="-3594253385" name="Basses Auges" lane="-353610252#1_0" startPos="0.00" endPos="11.66" friendlyPos="true" lines="R5"/>
    <busStop id="-3594255199" name="Mairie" lane="-49290580_0" startPos="38.32" endPos="53.32" friendlyPos="true" lines="R5"/>
    <busStop id="-3594255204" name="Poney Club" lane="-49290577#1_0" startPos="25.61" endPos="40.61" friendlyPos="true" lines="R5"/>
    <busStop id="-3594255210" name="Verger" lane="-784011533#0_0" startPos="0.00" endPos="8.87" friendlyPos="true" lines="R5"/>
    <busStop id="-431659640" name="Charmettes" lane="-26198066#2_0" startPos="51.99" endPos="66.99" friendlyPos="true" lines="C A"/>
    <busStop id="-431659653" name="Belloy" lane="-26198066#4_0" startPos="64.10" endPos="79.10" friendlyPos="true" lines="C A"/>
    <busStop id="-4320215188" name="Réservoir" lane="-827146974#0_0" startPos="0.00" endPos="8.94" friendlyPos="true" lines="R2-Sud"/>
    <busStop id="-4322085533" name="Président Wilson" lane="-30102955#3_0" startPos="34.40" endPos="49.40" friendlyPos="true" lines="20"/>
    <busStop id="-4324073772" name="Ourches Hôpital" lane="-28882962_0" startPos="96.56" endPos="111.56" friendlyPos="true" lines="R3-Nord R6"/>
    <busStop id="-4326574281" name="Gaudines" lane="-23152770#8_0" startPos="38.26" endPos="53.26" friendlyPos="true" lines="R2-Nord"/>
    <busStop id="-4326656952" name="Verdun" lane="-368614352_0" startPos="108.94" endPos="123.94" friendlyPos="true" lines="20"/>
    <busStop id="-4328365456" name="Nicot" lane="-172192378#1_0" startPos="43.59" endPos="58.59" friendlyPos="true" lines="R1 14"/>
    <busStop id="-4331120658" name="Gabillon" lane="-580878350_0" startPos="0.00" endPos="10.33" friendlyPos="true" lines="E 20"/>
    <busStop id="-4332119422" name="Centre Administratif" lane="-35396355#3_0" startPos="20.95" endPos="35.95" friendlyPos="true" lines="R3-Nord R6"/>
    <busStop id="-437923622" name="La Frégate" lane="-37438062#5_0" startPos="34.00" endPos="49.00" friendlyPos="true" lines="9D 9B 9AB"/>
    <busStop id="-437923630" name="La Linière" lane="-37438062#7_0" startPos="49.56" endPos="64.56" friendlyPos="true" lines="9D 9B 9AB"/>
    <busStop id="-437923774" name="Clos des Épines" lane="-572426994#0_0" startPos="22.37" endPos="37.37" friendlyPos="true" lines="9AB"/>
    <busStop id="-437970285" name="Ramon Saint-Thibault" lane="-347163841#1_0" startPos="45.43" endPos="59.97" friendlyPos="true" lines="10 9D"/>
    <busStop id="-4758524063" name="Jules Ferry" lane="-28712823#0_0" startPos="130.17" endPos="145.17" friendlyPos="true" lines="C"/>
    <busStop id="-4983892516" name="Jaurès" lane="-42859108#2_0" startPos="70.78" endPos="85.78" friendlyPos="true" lines="R2-Sud R3-Sud"/>
    <busStop id="-4983893720" name="Mairie" lane="-72180373#0_0" startPos="37.63" endPos="52.63" friendlyPos="true" lines="15"/>
    <busStop id="-535098814" name="L&apos;Ermitage" lane="-353254016_0" startPos="10.53" endPos="25.53" friendlyPos="true" lines="R3-Sud R5"/>
    <busStop id="-535547922" name="Croix de Fer" lane="-42818750#6_0" startPos="53.51" endPos="68.51" friendlyPos="true" lines="R2-Nord"/>
    <busStop id="-535810397" name="Place Royale" lane="-353610204#2_0" startPos="0.00" endPos="9.15" friendlyPos="true" lines="259"/>
    <busStop id="-536473646" name="Boufflers" lane="-758162576#8_0" startPos="77.62" endPos="92.62" friendlyPos="true" lines="R2-Nord R6"/>
    <busStop id="-5447580458" name="Alexandre Bertrand" lane="-23139964#1_0" startPos="0.00" endPos="12.65" friendlyPos="true" lines="259 R3-Sud R5"/>
    <busStop id="-5592618329" name="Bergerie" lane="-35016314#1_0" startPos="41.17" endPos="56.17" friendlyPos="true" lines="564"/>
    <busStop id="-5668122988" name="Place Vauban" lane="-23139725#3_0" startPos="23.53" endPos="38.53" friendlyPos="true" lines="24 3"/>
    <busStop id="-5676187339" name="Maurice de Vlaminck" lane="-40949638#2_0" startPos="33.84" endPos="48.84" friendlyPos="true" lines="A"/>
    <busStop id="-5676187340" name="Renoir" lane="-28915874#1_0" startPos="0.00" endPos="13.46" friendlyPos="true" lines="A"/>
    <busStop id="-5676191844" name="Ribot - Barbier" lane="-40949638#0_0" startPos="17.45" endPos="32.45" friendlyPos="true" lines="A"/>
    <busStop id="-5679344701" name="Monceau" lane="-28939393#3_0" startPos="45.93" endPos="60.93" friendlyPos="true" lines="A"/>
    <busStop id="-5717925666" name="La Roseraie" lane="-371924815#0_0" startPos="20.39" endPos="35.39" friendlyPos="true" lines="E D M"/>
    <busStop id="-5717925667" name="Verdun" lane="-371924815#8_0" startPos="23.86" endPos="38.86" friendlyPos="true" lines="E D M"/>
    <busStop id="-5717925670" name="Président Roosevelt" lane="-371730921#2_0" startPos="37.76" endPos="52.76" friendlyPos="true" lines="E M 20"/>
    <busStop id="-5717925677" name="Lycée Alain" lane="-362068182#4_0" startPos="65.45" endPos="80.45" friendlyPos="true" lines="M"/>
    <busStop id="-5717925678" name="Allée de la Gare" lane="-362068182#10_0" startPos="0.00" endPos="7.70" friendlyPos="true" lines="M"/>
    <busStop id="-5717925679" name="Émile Thiebaut" lane="-601749977#0_0" startPos="92.10" endPos="107.10" friendlyPos="true" lines="M"/>
    <busStop id="-5717925680" name="Gare du Vésinet Centre" lane="-797519598#0_0" startPos="0.53" endPos="15.53" friendlyPos="true" lines="M"/>
    <busStop id="-5717925683" name="Carrefour de la Croix" lane="-45740899#3_0" startPos="27.53" endPos="42.53" friendlyPos="true" lines="M"/>
    <busStop id="-5722098862" name="Gallieni" lane="-35396455#2_0" startPos="87.81" endPos="102.81" friendlyPos="true" lines="R3-Sud R6"/>
    <busStop id="-5722098863" name="Caraman" lane="-758162576#2_0" startPos="18.01" endPos="33.01" friendlyPos="true" lines="R2-Nord R6"/>
    <busStop id="-5722250078" name="République" lane="-35332802#1_0" startPos="35.02" endPos="50.02" friendlyPos="true" lines="R4"/>
    <busStop id="-5756804735" name="République" lane="-427795683#0_0" startPos="12.49" endPos="27.49" friendlyPos="true" lines="G 20"/>
    <busStop id="-5756804737" name="Aligre" lane="-30102955#0_0" startPos="114.67" endPos="129.67" friendlyPos="true" lines="20"/>
    <busStop id="-5756804739" name="Cirsée - Buisson" lane="-77113415#4_0" startPos="38.62" endPos="51.48" friendlyPos="true" lines="20"/>
    <busStop id="-5756804741" name="Liberté" lane="-878853560#0_0" startPos="0.00" endPos="8.50" friendlyPos="true" lines="20"/>
    <busStop id="-5761221487" name="Jacques Cartier" lane="-26197891#5_0" startPos="20.47" endPos="35.47" friendlyPos="true" lines="G"/>
    <busStop id="-589050467" name="Corbellerie" lane="-39845101#1_0" startPos="0.00" endPos="12.84" friendlyPos="true" lines="18 18S"/>
    <busStop id="-5937935975" name="Patte d&apos;Oie" lane="-26197244_0" startPos="18.64" endPos="31.05" friendlyPos="true" lines="E D"/>
    <busStop id="-5937935976" name="Les Moulins" lane="-370155236#2_0" startPos="21.17" endPos="36.17" friendlyPos="true" lines="E D"/>
    <busStop id="-5937935980" name="Stade Omnisport" lane="-580878339#1_0" startPos="101.50" endPos="116.50" friendlyPos="true" lines="E 20"/>
    <busStop id="-5937935981" name="Cultures Lorraine" lane="-40325350#0_0" startPos="99.53" endPos="114.53" friendlyPos="true" lines="E 20"/>
    <busStop id="-5937935982" name="Henri Régnault" lane="-40345749_0" startPos="1.45" endPos="16.45" friendlyPos="true" lines="E 20"/>
    <busStop id="-5937935984" name="Princesse - Croissy" lane="-362068171_0" startPos="26.84" endPos="41.84" friendlyPos="true" lines="E 20"/>
    <busStop id="-5937939985" name="Crèche" lane="-26194969#2_0" startPos="40.17" endPos="55.17" friendlyPos="true" lines="E 20"/>
    <busStop id="-5937939987" name="IRSN" lane="-371730926#0_0" startPos="8.37" endPos="23.37" friendlyPos="true" lines="E 20"/>
    <busStop id="-5937939988" name="Chemin de Ronde" lane="-371730926#6_0" startPos="0.55" endPos="11.78" friendlyPos="true" lines="E"/>
    <busStop id="-6166055483" name="Alexandre Bertrand" lane="-23139964#1_0" startPos="0.00" endPos="9.60" friendlyPos="true" lines="10 1 15"/>
    <busStop id="-6166055484" name="Giraud Teulon" lane="-23139964#5_0" startPos="56.91" endPos="71.91" friendlyPos="true" lines="1"/>
    <busStop id="-6166184993" name="Hôtel de Ville - Le Vésinet Centre RER" lane="-28375471#0_0" startPos="46.95" endPos="61.95" friendlyPos="true" lines="N153"/>
    <busStop id="-6185664288" name="Pontel" lane="-353254018#0_0" startPos="75.99" endPos="90.99" friendlyPos="true" lines="R3-Nord"/>
    <busStop id="-6185664289" name="Quatre Chemins" lane="-82804924#1_0" startPos="4.73" endPos="19.73" friendlyPos="true" lines="R3-Nord"/>
    <busStop id="-6220241942" name="Square Forest" lane="-286506390#3_0" startPos="44.00" endPos="59.00" friendlyPos="true" lines="R4 R2-Nord"/>
    <busStop id="-6416426085" name="Gambetta" lane="-353610204#2_0" startPos="0.30" endPos="15.30" friendlyPos="true" lines="R3-Nord R5 1"/>
    <busStop id="-6597572443" name="Mairie" lane="-172225643#8_0" startPos="8.41" endPos="23.41" friendlyPos="true" lines="R5"/>
    <busStop id="-6597572445" name="George Sand" lane="-42860316#3_0" startPos="96.56" endPos="111.56" friendlyPos="true" lines="R5"/>
    <busStop id="-6597572450" name="Val Fleuri" lane="-120290387#6_0" startPos="3.45" endPos="18.45" friendlyPos="true" lines="R5"/>
    <busStop id="-6597572457" name="Victor Hugo" lane="-49290577#7_0" startPos="0.00" endPos="8.47" friendlyPos="true" lines="R5"/>
    <busStop id="-6597572459" name="Couture" lane="-118927919#1_0" startPos="10.09" endPos="18.24" friendlyPos="true" lines="R5"/>
    <busStop id="-6597572464" name="Rue de Port Marly" lane="-34287257#1_0" startPos="260.36" endPos="271.01" friendlyPos="true" lines="R5"/>
    <busStop id="-6597572465" name="Planche" lane="-34287257#2_0" startPos="27.46" endPos="42.46" friendlyPos="true" lines="R5"/>
    <busStop id="-6598228489" name="Vieille Butte" lane="-42818750#5_0" startPos="20.01" endPos="35.01" friendlyPos="true" lines="R2-Nord"/>
    <busStop id="-6598228496" name="Taillevent" lane="-157286610#0_0" startPos="84.11" endPos="99.11" friendlyPos="true" lines="R2-Nord"/>
    <busStop id="-6598315510" name="Mairie" lane="-353610272#2_0" startPos="38.44" endPos="53.44" friendlyPos="true" lines="R2-Sud"/>
    <busStop id="-6598315516" name="Diderot" lane="-35396529#0_0" startPos="53.95" endPos="68.95" friendlyPos="true" lines="R2-Sud R1"/>
    <busStop id="-6649181596" name="Landes" lane="-141598083#0_0" startPos="105.64" endPos="120.64" friendlyPos="true" lines="A"/>
    <busStop id="-6649181597" name="Stade Finaltéri" lane="-141598083#5_0" startPos="84.83" endPos="99.83" friendlyPos="true" lines="A"/>
    <busStop id="-6649181598" name="Sabinettes" lane="-141598083#10_0" startPos="30.43" endPos="40.57" friendlyPos="true" lines="A"/>
    <busStop id="-6658431279" name="Fourqueux" lane="-22604461#4_0" startPos="8.47" endPos="23.47" friendlyPos="true" lines="R3-Sud"/>
    <busStop id="-6658497687" name="Ermitage" lane="-353254009#0_0" startPos="22.47" endPos="37.47" friendlyPos="true" lines="R3-Nord"/>
    <busStop id="-6658497688" name="Schnapper" lane="-353254009#6_0" startPos="92.89" endPos="107.89" friendlyPos="true" lines="R3-Nord"/>
    <busStop id="-6658497689" name="Sainte-Radegonde" lane="-42794371#0_0" startPos="176.02" endPos="191.02" friendlyPos="true" lines="R3-Nord"/>
    <busStop id="-7118977296" name="Lieutenant Chassagne" lane="-33968247#7_0" startPos="94.33" endPos="109.33" friendlyPos="true" lines="15"/>
    <busStop id="-731556749" name="Rue Nouvelle" lane="-165300935#2_0" startPos="8.86" endPos="23.86" friendlyPos="true" lines="15"/>
    <busStop id="-7425741757" name="Cormiers - Ricard" lane="-791547221#0_0" startPos="5.44" endPos="20.44" friendlyPos="true" lines="A"/>
    <busStop id="-7449644382" name="Chemin de Ronde" lane="-217559043_0" startPos="113.73" endPos="128.73" friendlyPos="true" lines="20"/>
    <busStop id="-7449644383" name="Allée des Machines" lane="-401846271#7_0" startPos="120.65" endPos="135.65" friendlyPos="true" lines="20"/>
    <busStop id="-7624279541" name="Égalité" lane="-28939393#5_0" startPos="10.45" endPos="25.45" friendlyPos="true" lines="L"/>
    <busStop id="-7624279544" name="Renoir" lane="-28915874#1_0" startPos="0.00" endPos="11.79" friendlyPos="true" lines="B"/>
    <busStop id="-7624279554" name="Maurice de Vlaminck" lane="-794194395#0_0" startPos="22.83" endPos="37.83" friendlyPos="true" lines="B"/>
    <busStop id="-7641045919" name="Paul Bert" lane="-29160367_0" startPos="56.92" endPos="71.92" friendlyPos="true" lines="B"/>
    <busStop id="-7641045932" name="Claude Monet" lane="-28368126#2_0" startPos="51.95" endPos="66.95" friendlyPos="true" lines="B"/>
    <busStop id="-7641045933" name="République Leclerc" lane="-35359347#1_0" startPos="25.50" endPos="40.50" friendlyPos="true" lines="B"/>
    <busStop id="-7641045934" name="République Pathé" lane="-35359313#4_0" startPos="123.65" endPos="138.65" friendlyPos="true" lines="B"/>
    <busStop id="-7653926596" name="Square des Sablons" lane="-158856549#2_0" startPos="30.43" endPos="45.43" friendlyPos="true" lines="21"/>
    <busStop id="-7653926597" name="Les Marronniers" lane="-85537031#6_0" startPos="53.01" endPos="68.01" friendlyPos="true" lines="21"/>
    <busStop id="-7653926602" name="Les Pins - Clos Courché" lane="-427848447#5_0" startPos="12.35" endPos="27.35" friendlyPos="true" lines="21 10"/>
    <busStop id="-7653926603" name="Brossolette" lane="-28989504_0" startPos="19.32" endPos="34.32" friendlyPos="true" lines="21"/>
    <busStop id="-7653926604" name="Ramon Saint-Thibault" lane="-427848446#3_0" startPos="0.00" endPos="13.78" friendlyPos="true" lines="21 10"/>
    <busStop id="-7653926607" name="République" lane="-427795683#0_0" startPos="18.75" endPos="33.75" friendlyPos="true" lines="21"/>
    <busStop id="-7656622103" name="Square de Versailles" lane="-37439255#1_0" startPos="7.71" endPos="22.71" friendlyPos="true" lines="10"/>
    <busStop id="-7656622107" name="Valcort Maigrets" lane="-51528990#0_0" startPos="34.86" endPos="49.86" friendlyPos="true" lines="9D 9B 9AB"/>
    <busStop id="-7656622109" name="Le Galion" lane="-29698052#2_0" startPos="30.75" endPos="45.75" friendlyPos="true" lines="9D 9AB"/>
    <busStop id="-7656622114" name="Les Lampes" lane="-37439255#15_0" startPos="6.95" endPos="21.95" friendlyPos="true" lines="10"/>
    <busStop id="-7656622115" name="Sablons - Jean Vilar" lane="-572426994#7_0" startPos="5.48" endPos="20.48" friendlyPos="true" lines="9AB"/>
    <busStop id="-7657520071" name="Gambetta" lane="-353610204#1_0" startPos="43.15" endPos="58.15" friendlyPos="true" lines="10 15"/>
    <busStop id="-7657528189" name="Les Alizés" lane="-37438062#6_0" startPos="78.67" endPos="93.67" friendlyPos="true" lines="9D 9B 9AB"/>
    <busStop id="-7657528214" name="Bèque SNCF - Gare de Marly-le-Roi" lane="-565730069#1_0" startPos="0.00" endPos="7.70" friendlyPos="true" lines="9B 18S"/>
    <busStop id="-7659912616" name="L&apos;Ermitage" lane="-353254016_0" startPos="7.60" endPos="22.60" friendlyPos="true" lines="15"/>
    <busStop id="-7661067763" name="Noyer Garenne" lane="-51685444#1_0" startPos="6.97" endPos="21.97" friendlyPos="true" lines="9D"/>
    <busStop id="-7661067767" name="Le Verger Saint-Exupéry" lane="-166969274#0_0" startPos="19.37" endPos="30.21" friendlyPos="true" lines="10 9D"/>
    <busStop id="-7662174633" name="Square de Monte Cristo" lane="-37439255#9_0" startPos="2.25" endPos="17.25" friendlyPos="true" lines="10"/>
    <busStop id="-7674894975" name="Avenue des Chênes" lane="-33968247#1_0" startPos="9.62" endPos="24.62" friendlyPos="true" lines="15"/>
    <busStop id="-7674894980" name="La Doucerie" lane="-33968247#8_0" startPos="57.77" endPos="72.77" friendlyPos="true" lines="15"/>
    <busStop id="-7674898690" name="Prés Jummelles" lane="-33968247#11_0" startPos="165.35" endPos="180.35" friendlyPos="true" lines="15"/>
    <busStop id="-7674898709" name="Sabotte" lane="-72180586#1_0" startPos="24.22" endPos="39.22" friendlyPos="true" lines="15"/>
    <busStop id="-7674898714" name="Bas Roi" lane="-72180586#4_0" startPos="38.47" endPos="53.47" friendlyPos="true" lines="15"/>
    <busStop id="-7678571462" name="Mairie (L&apos;Étang-la-Ville)" lane="-72180373#0_0" startPos="32.47" endPos="47.47" friendlyPos="true" lines="15"/>
    <busStop id="-7681539009" name="Alain" lane="-77032835_0" startPos="31.13" endPos="46.13" friendlyPos="true" lines="21S"/>
    <busStop id="-87360108" name="Saint-Germain-en-Laye" lane="-10445257#0_0" startPos="138.02" endPos="238.92" friendlyPos="true">
        <access lane="298584102_0" pos="9.34" length="9.20" friendlyPos="1"/>
        <access lane="298584105_0" pos="2.00" length="4.08" friendlyPos="1"/>
        <access lane="298584106_0" pos="6.65" length="3.94" friendlyPos="1"/>
        <access lane="35336334#0_0" pos="0.00" length="7.00" friendlyPos="1"/>
        <access lane="629797752_0" pos="33.48" length="9.61" friendlyPos="1"/>
    </busStop>
    <busStop id="1191783297" name="École La Malmaison" lane="374808758#3_0" startPos="0.61" endPos="8.32" friendlyPos="true" lines="259"/>
    <busStop id="1191784315" name="Le Parc" lane="374808749#1_0" startPos="34.76" endPos="49.76" friendlyPos="true" lines="259"/>
    <busStop id="1191784646" name="La Jonchère" lane="10278697#1_0" startPos="29.69" endPos="44.69" friendlyPos="true" lines="259"/>
    <busStop id="1191784755" name="École la Malmaison" lane="374808745#2_0" startPos="36.31" endPos="51.31" friendlyPos="true" lines="258 259"/>
    <busStop id="1191785020" name="Le Château" lane="374808745#4_0" startPos="21.13" endPos="32.61" friendlyPos="true" lines="258 259"/>
    <busStop id="1191785962" name="Le Parc" lane="10275364#2_0" startPos="27.63" endPos="42.63" friendlyPos="true" lines="259"/>
    <busStop id="1191787993" name="Maison Rouge" lane="374808757#6_0" startPos="11.53" endPos="26.53" friendlyPos="true" lines="259"/>
    <busStop id="1191788202" name="Maison Rouge" lane="196756850#2_0" startPos="29.16" endPos="44.16" friendlyPos="true" lines="259"/>
    <busStop id="1191788726" name="Le Château" lane="10275365#1_0" startPos="4.70" endPos="19.70" friendlyPos="true" lines="259 27"/>
    <busStop id="1192733145" name="Pont de Bougival" lane="551605198_0" startPos="9.14" endPos="24.14" friendlyPos="true" lines="259"/>
    <busStop id="1192733192" name="La Passerelle" lane="196711640#7_0" startPos="36.80" endPos="51.80" friendlyPos="true" lines="259"/>
    <busStop id="1192733227" name="La Chaussée - Musée Tourgueniev" lane="983149027#3_0" startPos="16.06" endPos="31.06" friendlyPos="true" lines="259"/>
    <busStop id="1192733280" name="Jaurès" lane="128206709#2_0" startPos="97.29" endPos="112.29" friendlyPos="true" lines="259"/>
    <busStop id="1192733743" name="La Chaussée - Musée Tourgueniev" lane="196756851#0_0" startPos="141.43" endPos="156.43" friendlyPos="true" lines="259"/>
    <busStop id="1192733837" name="Bas Prunay" lane="670533338#0_0" startPos="77.35" endPos="92.35" friendlyPos="true" lines="259"/>
    <busStop id="1192733848" name="Val André" lane="938345847#1_0" startPos="18.87" endPos="33.87" friendlyPos="true" lines="259 1"/>
    <busStop id="1192734064" name="Jaurès" lane="996821055#6_0" startPos="0.00" endPos="10.30" friendlyPos="true" lines="259"/>
    <busStop id="1192734516" name="Pavillon Halevy" lane="196701462#1_0" startPos="353.24" endPos="368.24" friendlyPos="true" lines="259"/>
    <busStop id="1192734696" name="La Passerelle" lane="22753547#7_0" startPos="57.00" endPos="72.00" friendlyPos="true" lines="259"/>
    <busStop id="1192735110" name="Bas Prunay" lane="670533337#0_0" startPos="12.96" endPos="27.96" friendlyPos="true" lines="259"/>
    <busStop id="1192735114" name="Val André" lane="46193426#1_0" startPos="145.54" endPos="157.06" friendlyPos="true" lines="259"/>
    <busStop id="1192735114@8268258" name="Val André" lane="957164332_0" startPos="14.25" endPos="29.25" friendlyPos="true" lines="18S"/>
    <busStop id="1192735124" name="Gare de Saint-Germain en Laye - Rue Thiers" lane="103289154#1_0" startPos="28.93" endPos="43.93" friendlyPos="true"/>
    <busStop id="1192735261" name="Place Royale" lane="103289122#1_0" startPos="65.14" endPos="80.14" friendlyPos="true" lines="259 R3-Sud R5"/>
    <busStop id="1279124392" name="Piscine" lane="944220918#1_0" startPos="0.00" endPos="9.26" friendlyPos="true" lines="9A"/>
    <busStop id="1349021902" name="Victor Hugo" lane="49290577#7_0" startPos="25.12" endPos="32.62" friendlyPos="true"/>
    <busStop id="1349115409" name="Clos Badère" lane="120290405#0_0" startPos="0.00" endPos="7.35" friendlyPos="true"/>
    <busStop id="1349115564" name="Val Fleuri" lane="120290387#5_0" startPos="9.81" endPos="24.81" friendlyPos="true"/>
    <busStop id="1401048938" name="Abreuvoir" lane="126368125_0" startPos="21.82" endPos="36.82" friendlyPos="true" lines="9D"/>
    <busStop id="1408977964" name="Saint-Nom-la-Bretèche" lane="681346061#0_0" startPos="0.00" endPos="131.87" friendlyPos="true">
        <access lane="403900983#0_0" pos="68.77" length="46.92" friendlyPos="1"/>
        <access lane="403900983#1_0" pos="0.00" length="45.43" friendlyPos="1"/>
        <access lane="403900984_0" pos="75.84" length="41.72" friendlyPos="1"/>
        <access lane="681346062#0_0" pos="7.93" length="39.35" friendlyPos="1"/>
        <access lane="838218771_0" pos="6.01" length="44.70" friendlyPos="1"/>
    </busStop>
    <busStop id="1408978024" name="L&apos;Étang-la-Ville" lane="681346058_0" startPos="1942.14" endPos="2142.14" friendlyPos="true">
        <access lane="-51766060#1_0" pos="72.38" length="20.95" friendlyPos="1"/>
        <access lane="-72180471_0" pos="102.83" length="63.27" friendlyPos="1"/>
        <access lane="-77006958#2_0" pos="99.70" length="27.77" friendlyPos="1"/>
        <access lane="51766060#1_0" pos="118.04" length="25.75" friendlyPos="1"/>
        <access lane="77006958#2_0" pos="27.16" length="32.57" friendlyPos="1"/>
    </busStop>
    <busStop id="1549917253" name="Landes" lane="141598083#0_0" startPos="37.07" endPos="52.07" friendlyPos="true"/>
    <busStop id="1679792573" name="Christiane Frahier" lane="286506387#3_0" startPos="139.66" endPos="153.45" friendlyPos="true" lines="R2-Nord"/>
    <busStop id="1686062581" name="Place Vauban" lane="23139725#3_0" startPos="23.27" endPos="38.27" friendlyPos="true" lines="24"/>
    <busStop id="1694933669" name="Rue de Seine" lane="28888986#7_0" startPos="14.91" endPos="22.36" friendlyPos="true"/>
    <busStop id="1730998221" name="Gare de Chatou - Croissy" lane="506093859_0" startPos="16.44" endPos="24.16" friendlyPos="true" lines="M"/>
    <busStop id="1730998232" name="Chatou - Croissy" lane="422071413_0" startPos="1968.23" endPos="2168.23" friendlyPos="true" lines="A">
        <access lane="-506093867_0" pos="40.36" length="50.35" friendlyPos="1"/>
        <access lane="35591398#0_0" pos="92.30" length="51.80" friendlyPos="1"/>
        <access lane="35591398#1_0" pos="0.20" length="50.74" friendlyPos="1"/>
        <access lane="40953567#3_0" pos="27.03" length="41.22" friendlyPos="1"/>
        <access lane="506093867_0" pos="2.30" length="45.55" friendlyPos="1"/>
    </busStop>
    <busStop id="1731764049" name="Saint-Germain-en-Laye" lane="161180860#2_0" startPos="157.91" endPos="258.17" friendlyPos="true" lines="A">
        <access lane="298584102_0" pos="9.34" length="10.76" friendlyPos="1"/>
        <access lane="298584105_0" pos="2.08" length="6.77" friendlyPos="1"/>
        <access lane="298584106_0" pos="4.90" length="3.37" friendlyPos="1"/>
        <access lane="35336334#0_0" pos="0.00" length="9.69" friendlyPos="1"/>
        <access lane="629797752_0" pos="33.58" length="12.30" friendlyPos="1"/>
    </busStop>
    <busStop id="1741135073" name="Bercail" lane="28939393#4_0" startPos="168.97" endPos="183.97" friendlyPos="true"/>
    <busStop id="1787007194" name="Patte d&apos;Oie" lane="26197244_0" startPos="4.86" endPos="19.86" friendlyPos="true"/>
    <busStop id="1806123617" name="Le Vésinet Centre" lane="24492308#2_0" startPos="155.44" endPos="155.44" friendlyPos="true" lines="A">
        <access lane="-797519598#0_0" pos="33.66" length="26.33" friendlyPos="1"/>
        <access lane="205666130#2_0" pos="1.92" length="35.73" friendlyPos="1"/>
        <access lane="330200540_0" pos="20.62" length="33.77" friendlyPos="1"/>
        <access lane="427233453#2_0" pos="22.53" length="31.13" friendlyPos="1"/>
        <access lane="76506984#2_0" pos="10.26" length="41.51" friendlyPos="1"/>
    </busStop>
    <busStop id="1806123617@2333439" name="Le Vésinet Centre" lane="422071413_0" startPos="1138.83" endPos="1138.83" friendlyPos="true" lines="A">
        <access lane="-797519598#0_0" pos="33.66" length="26.33" friendlyPos="1"/>
        <access lane="205666130#2_0" pos="1.92" length="35.73" friendlyPos="1"/>
        <access lane="330200540_0" pos="20.62" length="33.77" friendlyPos="1"/>
        <access lane="427233453#2_0" pos="22.53" length="31.13" friendlyPos="1"/>
        <access lane="76506984#2_0" pos="10.26" length="41.51" friendlyPos="1"/>
    </busStop>
    <busStop id="1820540860" name="La Roseraie" lane="371924815#1_0" startPos="34.45" endPos="49.45" friendlyPos="true"/>
    <busStop id="1820540862" name="Pont de Bougival" lane="22753551#0_0" startPos="19.25" endPos="34.25" friendlyPos="true" lines="D"/>
    <busStop id="1820540867" name="Verdun" lane="371924815#8_0" startPos="39.22" endPos="54.22" friendlyPos="true"/>
    <busStop id="2032291719" name="Marly-le-Roi" lane="192681887#3_0" startPos="112.15" endPos="211.95" friendlyPos="true">